data_2b_linear
_audit_creation_date              2020-09-30
_audit_creation_method            'adam'
_symmetry_space_group_name_H-M    'P1'
_symmetry_Int_Tables_number       1
_symmetry_cell_setting            triclinic
loop_
_symmetry_equiv_pos_as_xyz
  x,y,z
_cell_length_a                    20
_cell_length_b                    20
_cell_length_c                    20
_cell_angle_alpha                 90
_cell_angle_beta                  90
_cell_angle_gamma                 90
loop_
_atom_site_label
_atom_site_type_symbol
_atom_site_fract_x
_atom_site_fract_y
_atom_site_fract_z
C1 C -0.035252 0.058178 -0.014698
C2 C 0.03446 0.060681 -0.010926
X3 C 0.071218 0.00231 -0.000119
C4 C 0.038074 -0.05862 0.007283
C5 C -0.031665 -0.061357 0.004452
C6 C -0.06978 -0.002923 -0.006904
C7 C -0.144647 -0.005789 -0.010706
C8 C -0.180759 -0.057674 0.020851
C9 C -0.250519 -0.060016 0.017316
X10 C -0.285644 -0.011253 -0.018291
C11 C -0.250852 0.04016 -0.050037
C12 C -0.181162 0.043302 -0.046036
H15 H -0.061504 0.104705 -0.0225
H16 H 0.059919 0.108059 -0.016335
H17 H 0.066225 -0.104161 0.015329
H18 H -0.055118 -0.109672 0.009812
H19 H -0.155835 -0.096114 0.049407
H20 H -0.277215 -0.099834 0.042437
H21 H -0.277717 0.077875 -0.078043
H22 H -0.156398 0.083631 -0.072062
loop_
_geom_bond_atom_site_label_1
_geom_bond_atom_site_label_2
_geom_bond_distance
_geom_bond_site_symmetry_2
_ccdc_geom_bond_type
C1 C2 1.3971782708913705 . D
C1 C6 1.4122672037093404 . S
C1 H15 1.0797871992855814 . S
C2 X3 1.3964378455788857 . S
C2 H16 1.0811228047382038 . S
X3 C4 1.395107829363021 . D
C4 C5 1.3969979583786083 . S
C4 H17 1.0828092252331434 . S
C5 C6 1.4136646740656005 . D
C5 H18 1.0794785028771996 . S
C6 C7 1.5003708677010497 . S
C7 C8 1.4130873207785144 . D
C7 C12 1.4130066288652012 . S
C8 C9 1.3977634923147761 . S
C8 H19 1.079694959486706 . S
C9 X10 1.3970734411934114 . D
C9 H20 1.0824482175259011 . S
X10 C11 1.3945031042134686 . S
C11 C12 1.397516134016706 . D
C11 H21 1.0823101423395238 . S
C12 H22 1.0801822142032333 . S
