data_pna_v1-4c_Co_pw_v2-4c_Co_pw_v3-4c_Co_pw_2b_linear
_audit_creation_date              2020-09-04
_audit_creation_method            'tobacco_3.0'
_symmetry_space_group_name_H-M    'P1'
_symmetry_Int_Tables_number       1
_symmetry_cell_setting            triclinic
loop_
_symmetry_equiv_pos_as_xyz
  x,y,z
_cell_length_a                    45.325939402657724
_cell_length_b                    45.32767614054507
_cell_length_c                    32.18554757385971
_cell_angle_alpha                 90.00000000105669
_cell_angle_beta                  89.9999999723721
_cell_angle_gamma                 89.99917529262802
loop_
_atom_site_label
_atom_site_type_symbol
_atom_site_fract_x
_atom_site_fract_y
_atom_site_fract_z
_atom_site_charge
Co1       Co    0.0000145371    0.3315041477    0.0345747687          0.1113
Co2       Co   -0.0000079423    0.3324982397   -0.0345955260             0.0
O3         O    0.0000518386    0.2913944831    0.0339901931          0.1042
O4         O   -0.0000645151    0.2925515651   -0.0350784374          -0.007
O5         O   -0.0000257270    0.3716401442    0.0357809995          0.1034
O6         O    0.0000381039    0.3724005494   -0.0333034047         -0.0078
C7         C   -0.0000078621    0.2778102116    0.0012259574          0.0521
C8         C   -0.0000008464    0.3861189224    0.0037669078          0.0512
O9         O   -0.0399156831    0.3314545361    0.0341814097          0.1026
O10        O   -0.0401356670    0.3325448696   -0.0348921642         -0.0086
O11        O    0.0399431877    0.3315649624    0.0341965149          0.1027
O12        O    0.0401267024    0.3324602763   -0.0348828779         -0.0085
C13        C    0.0541684183    0.3320389893   -0.0024964135          0.0436
C14        C   -0.0541597098    0.3320318766   -0.0024964517          0.0435
Co15      Co    0.3368060329    0.9947063327    0.9654251994          0.1113
Co16      Co    0.3378001569    0.9946836993    1.0345954941             0.0
O17        O    0.2966948336    0.9947459890    0.9660097697          0.1042
O18        O    0.2978519484    0.9946294754    1.0350784000          -0.007
O19        O    0.3769435650    0.9946637131    0.9642189739          0.1034
O20        O    0.3777039982    0.9947274006    1.0333033784         -0.0078
C21        C    0.2831100359    0.9946870432    0.9987740033          0.0521
C22        C    0.3914228972    0.9946876972    0.9962330676          0.0512
O23        O    0.3367540728    0.9547776448    0.9658184480          0.1026
O24        O    0.3378444304    0.9545575090    1.0348920215         -0.0086
O25        O    0.3368691964    1.0346334492    0.9658035636          0.1027
O26        O    0.3377645506    1.0348168079    1.0348829570         -0.0085
C27        C    0.3373440749    1.0488580557    1.0024965314          0.0436
C28        C    0.3373305958    0.9405340788    1.0024962701          0.0435
Co29      Co    1.0000098416    0.6578649310    0.9654252277          0.1113
Co30      Co    0.9999873701    0.6568708334    1.0345955222             0.0
O31        O    1.0000468840    0.6979745948    0.9660098105          0.1042
O32        O    0.9999305392    0.6968175091    1.0350784408          -0.007
O33        O    0.9999698367    0.6177289356    0.9642189897          0.1034
O34        O    1.0000336740    0.6169685228    1.0333033938         -0.0078
C35        C    0.9999870962    0.7115588646    0.9987740486          0.0521
C36        C    0.9999948115    0.6032501539    0.9962330788          0.0512
O37        O    0.9600796211    0.6579154342    0.9658185884          0.1026
O38        O    0.9598596456    0.6568250994    1.0348921622         -0.0086
O39        O    1.0399384926    0.6578032249    0.9658034798          0.1027
O40        O    1.0401220144    0.6569079006    1.0348828724         -0.0085
C41        C    1.0541637270    0.6573288770    1.0024964075          0.0436
C42        C    0.9458355988    0.6573384084    1.0024964503          0.0435
Co43      Co    0.4997207739    0.7172437259    0.9654199849          0.1113
Co44      Co    0.5002146768    0.7173521042    1.0346007885             0.0
O45        O    0.4713303774    0.6889068161    0.9653513487          0.1042
O46        O    0.4720062422    0.6890649059    1.0344324784          -0.007
O47        O    0.5281339064    0.7456023578    0.9648674232          0.1034
O48        O    0.5284018152    0.7456072611    1.0339591551         -0.0078
C49        C    0.4616604153    0.6789861763    0.9978912359          0.0521
C50        C    0.5382503614    0.7555889776    0.9971150123          0.0512
O51        O    0.5279191240    0.6889716180    0.9655261798          0.1026
O52        O    0.5286210509    0.6890091992    1.0346104221         -0.0086
O53        O    0.4715289463    0.7455161906    0.9660855124          0.1027
O54        O    0.4718076388    0.7457011447    1.0351752893         -0.0085
C55        C    0.4616861400    0.7556027554    1.0028852362          0.0436
C56        C    0.5382800699    0.6790013960    1.0021083787          0.0435
Co57      Co    0.7225760930    0.4949364899   -0.0345798658          0.1113
Co58      Co    0.7226844647    0.4944425646    0.0346009373             0.0
O59        O    0.6942376526    0.5233261706   -0.0346484845          0.1042
O60        O    0.6943957405    0.5226502896    0.0344326445          -0.007
O61        O    0.7509362568    0.4665240743   -0.0351324450          0.1034
O62        O    0.7509411459    0.4662561358    0.0339592866         -0.0078
C63        C    0.6843164725    0.5329958735   -0.0021085915          0.0521
C64        C    0.7609234091    0.4564078573   -0.0028848622          0.0512
O65        O    0.6943033435    0.4667395912   -0.0344737182          0.1026
O66        O    0.6943409187    0.4660376507    0.0346105233         -0.0086
O67        O    0.7508491991    0.5231268660   -0.0339142910          0.1027
O68        O    0.7510341462    0.5228481418    0.0351754856         -0.0085
C69        C    0.7609359864    0.5329691416    0.0028854494          0.0436
C70        C    0.6843328920    0.4563791519    0.0021084635          0.0435
Co71      Co    0.2774604345    0.4944331250    0.9654199592          0.1113
Co72      Co    0.2773520648    0.4949270517    1.0346007623             0.0
O73        O    0.3057987566    0.4660433264    0.9653513412          0.1042
O74        O    0.3056406714    0.4667192088    1.0344324701          -0.007
O75        O    0.2491003890    0.5228456588    0.9648673794          0.1034
O76        O    0.2490955009    0.5231135981    1.0339591110         -0.0078
C77        C    0.3157198963    0.4563735825    0.9978912344          0.0521
C78        C    0.2391132788    0.5329619178    0.9971149619          0.0512
O79        O    0.3057333014    0.5226299060    0.9655261061          0.1026
O80        O    0.3056957291    0.5233318475    1.0346103476         -0.0086
O81        O    0.2491872109    0.4662428668    0.9660855347          0.1027
O82        O    0.2490022649    0.4665215925    1.0351753113         -0.0085
C83        C    0.2391003826    0.4564006336    1.0028852754          0.0436
C84        C    0.3157037960    0.5329903042    1.0021082877          0.0435
Co85      Co    0.5002526764    0.2721216460    0.9654199903          0.1113
Co86      Co    0.4997587500    0.2720133005    1.0346007937             0.0
O87        O    0.5286449577    0.3004566675    0.9653513674          0.1042
O88        O    0.5279690661    0.3002986227    1.0344324967          -0.007
O89        O    0.4718376577    0.2437649039    0.9648674155          0.1034
O90        O    0.4715697324    0.2437600185    1.0339591472         -0.0078
C91        C    0.5383155720    0.3103766640    0.9978912591          0.0521
C92        C    0.4617205309    0.2337789570    0.9971149998          0.0512
O93        O    0.4720562068    0.3003956293    0.9655261721          0.1026
O94        O    0.4713542611    0.3003580947    1.0346104141         -0.0086
O95        O    0.5284426232    0.2438473064    0.9660855309          0.1027
O96        O    0.5281639022    0.2436623708    1.0351753077         -0.0085
C97        C    0.5382847499    0.2337600869    1.0028852594          0.0436
C98        C    0.4616959155    0.3103665403    1.0021083662          0.0435
Co99      Co    0.6631716155    0.9946561978    0.9654252037          0.1113
Co100     Co    0.6621774877    0.9946788198    1.0345954984             0.0
O101       O    0.7032828152    0.9946169422    0.9660097781          0.1042
O102       O    0.7021256956    0.9947334428    1.0350784083          -0.007
O103       O    0.6230340831    0.9946984164    0.9642189741          0.1034
O104       O    0.6222736468    0.9946347199    1.0333033786         -0.0078
C105       C    0.7168676106    0.9946760230    0.9987740132          0.0521
C106       C    0.6085547494    0.9946742869    0.9962330664          0.0512
O107       O    0.6632231767    1.0345848861    0.9658184539          0.1026
O108       O    0.6621328132    1.0348050097    1.0348920273         -0.0086
O109       O    0.6631088510    0.9547290806    0.9658035663          0.1027
O110       O    0.6622134950    0.9545457116    1.0348829597         -0.0085
C111       C    0.6626341126    0.9405044686    1.0024965335          0.0436
C112       C    0.6626465094    1.0488284456    1.0024962765          0.0435
Co113     Co    0.9998948481    0.9947019094   -0.0345815852          0.1113
Co114     Co    1.0000706127    0.9946793725    0.0346024331             0.0
O115       O    0.9597822971    0.9947387096   -0.0349380959          0.1042
O116       O    0.9601222393    0.9946223041    0.0341480961          -0.007
O117       O    1.0400410819    0.9946621476   -0.0348460258          0.1034
O118       O    1.0399841982    0.9947259150    0.0342466318         -0.0078
C119       C    0.9458118170    0.9946788086   -0.0024971049          0.0521
C120       C    1.0541397050    0.9946871748   -0.0024966926          0.0512
O121       O    0.9998410863    0.9547732181   -0.0341895276          0.1026
O122       O    1.0001142294    0.9545531856    0.0349000410         -0.0086
O123       O    0.9999506842    1.0346290305   -0.0342018743          0.1027
O124       O    1.0000287535    1.0348124786    0.0348889378         -0.0085
C125       C    0.9999904390    1.0488536845    0.0024971129          0.0436
C126       C    0.9999846775    0.9405297068    0.0024967596          0.0435
C467       C    0.7986933281    1.0201597026    0.9869483802         -0.0228
C468       C    0.7678684617    1.0200579169    0.9870362591          -0.019
C469       C    0.7524491461    0.9946764560    0.9985764614         -0.0082
C470       C    0.7679305261    0.9693037585    1.0098323347         -0.0008
C471       C    0.7987488175    0.9691289518    1.0092845447         -0.0036
C472       C    0.8147776088    0.9946496655    0.9979763016          -0.015
C473       C    0.8478790328    0.9946399035    0.9977924203         -0.0188
C474       C    0.8639295205    0.9681301320    0.9930145613          0.0128
C475       C    0.8947670166    0.9682494258    0.9927487412          0.0092
C476       C    0.9102302815    0.9946783757    0.9977004469         -0.0264
C477       C    0.8947737204    1.0210452028    1.0026586279         -0.0581
C478       C    0.8639418564    1.0211513596    1.0024427890         -0.0541
H479       H    0.8096228103    1.0402166169    0.9774238881         -0.0306
H480       H    0.7559599853    1.0397209666    0.9780783127         -0.0244
H481       H    0.7561418917    0.9495793239    1.0190286039          0.0073
H482       H    0.8097917431    0.9490948465    1.0186097462          0.0017
H483       H    0.8529454583    0.9472148115    0.9887265380          0.0413
H484       H    0.9066150633    0.9477231118    0.9886218907          0.0344
H485       H    0.9066118174    1.0415760251    1.0067600935         -0.0861
H486       H    0.8529571162    1.0420666658    1.0068527439         -0.0801
C447       C    0.6253998022    0.1187976046    0.9667740214         -0.0228
C448       C    0.6426496466    0.0932517974    0.9668632428          -0.019
C449       C    0.6444885401    0.0758301788    1.0025530716         -0.0082
C450       C    0.6291503543    0.0840951912    1.0382853000         -0.0008
C451       C    0.6121741153    0.1098181801    1.0385867287         -0.0036
C452       C    0.6098569967    0.1276520906    1.0027012828          -0.015
C453       C    0.5913856188    0.1551199585    1.0027733738         -0.0188
C454       C    0.5851492752    0.1702432802    1.0401473993          0.0128
C455       C    0.5679969386    0.1958704986    1.0400339809          0.0092
C456       C    0.5564427191    0.2067583537    1.0028284643         -0.0264
C457       C    0.5622395362    0.1920543521    0.9656563451         -0.0581
C458       C    0.5796720754    0.1666243004    0.9654534520         -0.0541
H459       H    0.6248893094    0.1316872282    0.9385700397         -0.0306
H460       H    0.6546243493    0.0870140729    0.9391726132         -0.0244
H461       H    0.6303364130    0.0706261510    1.0660203492          0.0073
H462       H    0.6004689117    0.1151923147    1.0667975055          0.0017
H463       H    0.5938066730    0.1628112368    1.0695941707          0.0413
H464       H    0.5637447484    0.2072709261    1.0689724414          0.0344
H465       H    0.5532119045    0.2002666112    0.9367530223         -0.0861
H466       H    0.5832738435    0.1558264552    0.9359679799         -0.0801
C427       C    0.3686525535    0.4088893496    0.9620859059         -0.0228
C428       C    0.3467913463    0.4306173551    0.9615484973          -0.019
C429       C    0.3329358776    0.4391539424    0.9983885905         -0.0082
C430       C    0.3408780918    0.4257915046    1.0357999378         -0.0008
C431       C    0.3624412733    0.4037752249    1.0364868890         -0.0036
C432       C    0.3768770021    0.3949568732    0.9995855457          -0.015
C433       C    0.4002749205    0.3715476163    1.0002744222         -0.0188
C434       C    0.4010981439    0.3501192812    1.0321415623          0.0128
C435       C    0.4228944041    0.3283063325    1.0325794177          0.0092
C436       C    0.4444799342    0.3275861804    1.0016110101         -0.0264
C437       C    0.4441131445    0.3486356281    0.9700172457         -0.0581
C438       C    0.4221774444    0.3702920783    0.9690836779         -0.0541
H439       H    0.3785299872    0.4028428183    0.9327686186         -0.0306
H440       H    0.3405946392    0.4408026932    0.9324553445         -0.0244
H441       H    0.3303502763    0.4323929768    1.0645331118          0.0073
H442       H    0.3680699725    0.3942564042    1.0661906323          0.0017
H443       H    0.3847399320    0.3496374707    1.0565167686          0.0413
H444       H    0.4229296601    0.3119277537    1.0570541169          0.0344
H445       H    0.4608716499    0.3483153685    0.9460672668         -0.0861
H446       H    0.4230047784    0.3863081865    0.9442594566         -0.0801
C407       C    0.6188235040    0.4216785014    0.0224882392         -0.0228
C408       C    0.6406990372    0.4433896747    0.0231531761          -0.019
C409       C    0.6671042189    0.4391522288    0.0016108730         -0.0082
C410       C    0.6716715817    0.4130557628   -0.0204515093         -0.0008
C411       C    0.6500544316    0.3910890508   -0.0207979738         -0.0036
C412       C    0.6230900294    0.3950272112    0.0005680140          -0.015
C413       C    0.5996923833    0.3716182285   -0.0001122379         -0.0188
C414       C    0.6069507088    0.3417475233   -0.0074208481          0.0128
C415       C    0.5850801973    0.3200101888   -0.0079092066          0.0092
C416       C    0.5555442452    0.3276035872   -0.0016111504         -0.0264
C417       C    0.5479360255    0.3569885256    0.0054488761         -0.0581
C418       C    0.5697199321    0.3787944951    0.0064927985         -0.0541
H419       H    0.5989048442    0.4258472853    0.0399292787         -0.0306
H420       H    0.6371304703    0.4635124403    0.0404721877         -0.0244
H421       H    0.6920211508    0.4096629123   -0.0374145761          0.0073
H422       H    0.6544333506    0.3713886553   -0.0386044141          0.0017
H423       H    0.6294912900    0.3347932287   -0.0120857143          0.0413
H424       H    0.5911725931    0.2972212766   -0.0131465574          0.0344
H425       H    0.5250779769    0.3630518339    0.0101033612         -0.0861
H426       H    0.5627123419    0.4012805308    0.0116064344         -0.0801
C387       C    0.5784576591    0.8240787689    0.9620060122         -0.0228
C388       C    0.5613386478    0.7984497753    0.9613486285          -0.019
C389       C    0.5564183429    0.7825984639    0.9979010585         -0.0082
C390       C    0.5687977466    0.7923462933    1.0351360874         -0.0008
C391       C    0.5862600559    0.8177361338    1.0359206566         -0.0036
C392       C    0.5913438078    0.8342120213    0.9993206154          -0.015
C393       C    0.6098195778    0.8616704020    1.0001323914         -0.0188
C394       C    0.6313617531    0.8660849774    1.0312542090          0.0128
C395       C    0.6485744502    0.8916683228    1.0318064835          0.0092
C396       C    0.6444661311    0.9134949823    1.0017104873         -0.0264
C397       C    0.6232136475    0.9095967113    0.9708669955         -0.0581
C398       C    0.6061706833    0.8839150552    0.9698081979         -0.0541
H399       H    0.5818616064    0.8354222732    0.9328974005         -0.0306
H400       H    0.5519177605    0.7908890917    0.9323844994         -0.0244
H401       H    0.5649620816    0.7802674257    1.0636542048          0.0073
H402       H    0.5951494826    0.8246008368    1.0654953994          0.0017
H403       H    0.6355024912    0.8497273464    1.0549313848          0.0413
H404       H    0.6651568134    0.8944580149    1.0556873315          0.0344
H405       H    0.6197917484    0.9264947591    0.9476026899         -0.0861
H406       H    0.5897704548    0.8820472438    0.9456002789         -0.0801
C367       C    0.4231410077    0.6180925712    1.0296853350         -0.0228
C368       C    0.4449471476    0.6398713008    1.0288938007          -0.019
C369       C    0.4444517571    0.6617728902    0.9983884371         -0.0082
C370       C    0.4221670583    0.6617682235    0.9684892944         -0.0008
C371       C    0.4005170553    0.6398333780    0.9687644443         -0.0036
C372       C    0.4005035412    0.6175835731    0.9995433670          -0.015
C373       C    0.3771009892    0.5941792379    1.0002058657         -0.0188
C374       C    0.3617024701    0.5863259061    0.9636683610          0.0128
C375       C    0.3399753895    0.5644490945    0.9644265526          0.0092
C376       C    0.3329124541    0.5502035903    1.0016110865         -0.0264
C377       C    0.3477707813    0.5577560487    1.0380288230         -0.0581
C378       C    0.3697741862    0.5793488874    1.0374172730         -0.0541
H379       H    0.4246140837    0.6014752600    1.0536336575         -0.0306
H380       H    0.4622646479    0.6396993745    1.0519914339         -0.0244
H381       H    0.4215368604    0.6787611882    0.9448603340          0.0073
H382       H    0.3835529172    0.6408717056    0.9452702228          0.0017
H383       H    0.3665768149    0.5965394163    0.9341508322          0.0413
H384       H    0.3286652531    0.5585716092    0.9359861248          0.0344
H385       H    0.3422875782    0.5469347338    1.0669926468         -0.0861
H386       H    0.3804301987    0.5846697574    1.0664864177         -0.0801
C347       C    0.5695137612    0.6104128149    0.9949475053         -0.0228
C348       C    0.5477642718    0.6322491765    0.9957148350          -0.019
C349       C    0.5555144154    0.6617706948    1.0016107170         -0.0082
C350       C    0.5850850766    0.6694154783    1.0069714766         -0.0008
C351       C    0.6069079957    0.6476515263    1.0067891650         -0.0036
C352       C    0.5995503191    0.6176658991    1.0005829920          -0.015
C353       C    0.6229629436    0.5942710649    0.9999135474         -0.0188
C354       C    0.6502298382    0.5985239849    1.0203389323          0.0128
C355       C    0.6719390024    0.5766265652    1.0197198188          0.0092
C356       C    0.6670821270    0.5502265747    0.9983890702         -0.0264
C357       C    0.6403657578    0.5456861795    0.9778762515         -0.0581
C358       C    0.6184135591    0.5673264159    0.9787861194         -0.0541
H359       H    0.5624136726    0.5878764112    0.9906834680         -0.0306
H360       H    0.5248607379    0.6262075111    0.9917687501         -0.0244
H361       H    0.5912941356    0.6922730523    1.0113438933          0.0073
H362       H    0.6295139302    0.6546223803    1.0106597591          0.0017
H363       H    0.6548820681    0.6184466522    1.0375188290          0.0413
H364       H    0.6925494324    0.5802298763    1.0359327761          0.0344
H365       H    0.6365239268    0.5253597092    0.9610819197         -0.0861
H366       H    0.5982269253    0.5629345287    0.9620546705         -0.0801
C327       C    1.0264069364    0.7934804569    0.9943743144         -0.0228
C328       C    1.0263426061    0.7626576855    0.9940111762          -0.019
C329       C    0.9999867201    0.7471613841    0.9993528904         -0.0082
C330       C    0.9736735503    0.7625623059    1.0052927704         -0.0008
C331       C    0.9736348921    0.7933749882    1.0062408032         -0.0036
C332       C    1.0000414252    0.8094824928    1.0006110915          -0.015
C333       C    1.0000319969    0.8425806474    1.0011556569         -0.0188
C334       C    0.9777499839    0.8584718667    1.0221813749          0.0128
C335       C    0.9778860414    0.8893065478    1.0226931831          0.0092
C336       C    0.9999850536    0.9049271874    1.0019179178         -0.0264
C337       C    1.0220810958    0.8896299366    0.9808266135         -0.0581
C338       C    1.0222988245    0.8587998566    0.9806056618         -0.0541
H339       H    1.0473637374    0.8044690222    0.9905021537         -0.0306
H340       H    1.0468083674    0.7508104865    0.9896195568         -0.0244
H341       H    0.9531196512    0.7507148680    1.0092416504          0.0073
H342       H    0.9527224134    0.8043564600    1.0105253552          0.0017
H343       H    0.9603754253    0.8473614915    1.0389676331          0.0413
H344       H    0.9607689195    0.9010293722    1.0393497078          0.0344
H345       H    1.0391683170    0.9015914587    0.9644574105         -0.0861
H346       H    1.0396738549    0.8479435653    0.9634621384         -0.0801
C307       C    0.8952005065    0.5914331712    1.0083219088         -0.0228
C308       C    0.9207409768    0.6086905483    1.0081302227          -0.019
C309       C    0.9188451911    0.6391838154    1.0025532338         -0.0082
C310       C    0.8913332203    0.6523950576    0.9969342987         -0.0008
C311       C    0.8657389633    0.6352262016    0.9965411257         -0.0036
C312       C    0.8671582077    0.6043510559    1.0024170086          -0.015
C313       C    0.8396872473    0.5858841756    1.0024683671         -0.0188
C314       C    0.8138978369    0.5954109724    0.9817670463          0.0128
C315       C    0.7883863305    0.5780867837    0.9818101713          0.0092
C316       C    0.7879263941    0.5511237346    1.0028286660         -0.0264
C317       C    0.8131197189    0.5414200309    1.0236065661         -0.0581
C318       C    0.8388225449    0.5584468337    1.0232721106         -0.0541
H319       H    0.8978111415    0.5679290090    1.0123571755         -0.0306
H320       H    0.9420283952    0.5983408919    1.0122746009         -0.0244
H321       H    0.8896594492    0.6760439303    0.9928061953          0.0073
H322       H    0.8449213587    0.6464301468    0.9924889537          0.0017
H323       H    0.8132844274    0.6159542960    0.9648106727          0.0413
H324       H    0.7689730720    0.5856737014    0.9653941622          0.0344
H325       H    0.8128632284    0.5206382600    1.0401617137         -0.0861
H326       H    0.8576646881    0.5501644380    1.0401902551         -0.0801
C287       C    1.1047016041    0.5913042529    0.9967093852         -0.0228
C288       C    1.0791660666    0.6085589536    0.9975868466          -0.019
C289       C    1.0811819174    0.6391608406    1.0017102639         -0.0082
C290       C    1.1088156467    0.6524885640    1.0051863520         -0.0008
C291       C    1.1344214839    0.6353352984    1.0048860651         -0.0036
C292       C    1.1328737410    0.6043450678    1.0004539702          -0.015
C293       C    1.1603436909    0.5858844507    0.9996606336         -0.0188
C294       C    1.1866905072    0.5958638390    1.0184588031          0.0128
C295       C    1.2122014189    0.5785456529    1.0177342824          0.0092
C296       C    1.2120950884    0.5511299541    0.9979011056         -0.0264
C297       C    1.1863419118    0.5409720136    0.9790005255         -0.0581
C298       C    1.1606484995    0.5579994253    0.9800398767         -0.0541
H299       H    1.1020068567    0.5677222716    0.9938591676         -0.0306
H300       H    1.0577903855    0.5981237363    0.9951058328         -0.0244
H301       H    1.1105767536    0.6762172969    1.0081758963          0.0064
H302       H    1.1553240572    0.6466223723    1.0072640345          0.0017
H303       H    1.1877614299    0.6167728630    1.0344563669          0.0413
H304       H    1.2320574935    0.5864915172    1.0326983485          0.0344
H305       H    1.1861519118    0.5198334988    0.9633649616         -0.0861
H306       H    1.1413496233    0.5493472617    0.9645725802         -0.0801
C267       C    0.2013224795    1.0108329767    0.9683165692         -0.0228
C268       C    0.2321466607    1.0108546844    0.9686500945          -0.019
C269       C    0.2475154387    0.9946870637    0.9985764672         -0.0082
C270       C    0.2319831292    0.9785977128    1.0283580051         -0.0008
C271       C    0.2011627815    0.9787910406    1.0285456305         -0.0036
C272       C    0.1851859222    0.9948478698    0.9983522598          -0.015
C273       C    0.1520844601    0.9948445495    0.9981820808         -0.0188
C274       C    0.1359188009    0.9890988814    1.0348401839          0.0128
C275       C    0.1050813879    0.9892020382    1.0345429516          0.0092
C276       C    0.0897343022    0.9946871543    0.9977008435         -0.0264
C277       C    0.1053061964    1.0002620809    0.9611676075         -0.0581
C278       C    0.1361370030    1.0005566799    0.9613270225         -0.0541
H279       H    0.1904313891    1.0238846927    0.9448132197         -0.0306
H280       H    0.2440937274    1.0234803138    0.9456484054         -0.0244
H281       H    0.2437333485    0.9658801784    1.0515365060          0.0073
H282       H    0.1900812573    0.9657986034    1.0519230291          0.0017
H283       H    0.1468095637    0.9850005132    1.0641107418          0.0413
H284       H    0.0931425516    0.9850412969    1.0630745218          0.0344
H285       H    0.0935593019    1.0043532524    0.9324634331         -0.0861
H286       H    0.1472150435    1.0046551478    0.9321780610         -0.0801
C247       C    0.3593926480    0.8603893855    0.9968463360         -0.0228
C248       C    0.3422457648    0.8860044183    0.9969306563          -0.019
C249       C    0.3554869204    0.9135334883    1.0025530604         -0.0082
C250       C    0.3859351898    0.9153962377    1.0083251247         -0.0008
C251       C    0.4031637740    0.8898431401    1.0088260330         -0.0036
C252       C    0.3902207216    0.8617805555    1.0029066694          -0.015
C253       C    0.4086990554    0.8343173563    1.0029709029         -0.0188
C254       C    0.4361238764    0.8334233471    1.0238122919          0.0128
C255       C    0.4532183581    0.8077574181    1.0238763081          0.0092
C256       C    0.4435298154    0.7826033460    1.0028284459         -0.0264
C257       C    0.4165905446    0.7831086846    0.9819132503         -0.0581
C258       C    0.3992059746    0.8085714522    0.9821392551         -0.0541
H259       H    0.3481212172    0.8396035747    0.9927703138         -0.0306
H260       H    0.3186378003    0.8844451621    0.9926676425         -0.0244
H261       H    0.3963932725    0.9366694203    1.0124894687          0.0073
H262       H    0.4266590226    0.8923707468    1.0129954995          0.0017
H263       H    0.4443958946    0.8522252949    1.0407958545          0.0413
H264       H    0.4740172582    0.8074696142    1.0403982396          0.0344
H265       H    0.4090332405    0.7637580003    0.9653349800         -0.0861
H266       H    0.3786750237    0.8079995501    0.9651172272         -0.0801
C227       C    0.3842873674    1.1128226879    1.0379541131         -0.0228
C228       C    0.3670068478    1.0873021981    1.0386030881          -0.019
C229       C    0.3555110735    1.0758684550    1.0017104801         -0.0082
C230       C    0.3612010375    1.0901104209    0.9641294315         -0.0008
C231       C    0.3781355847    1.1158548232    0.9633176149         -0.0036
C232       C    0.3901457900    1.1276773444    1.0002759916          -0.015
C233       C    0.4086128584    1.1551415718    0.9994638233         -0.0188
C234       C    0.4056983076    1.1759866893    0.9670768848          0.0128
C235       C    0.4228975353    1.2015790843    0.9665239674          0.0092
C236       C    0.4435535324    1.2067685577    0.9979010511         -0.0264
C237       C    0.4468465108    1.1863801305    1.0300142552         -0.0581
C238       C    0.4294742156    1.1609197243    1.0310559627         -0.0541
H239       H    0.3924521135    1.1209677632    1.0673090216         -0.0306
H240       H    0.3625223962    1.0764250893    1.0678225598         -0.0244
H241       H    0.3524975353    1.0813018923    0.9353594787          0.0073
H242       H    0.3821984170    1.1259621585    0.9334932100          0.0017
H243       H    0.3898582916    1.1730525465    0.9423660834          0.0413
H244       H    0.4200884786    1.2173963386    0.9416400200          0.0344
H245       H    0.4629304178    1.1901737700    1.0542876187         -0.0861
H246       H    0.4330556260    1.1456278297    1.0562975146         -0.0801
C207       C    0.4673741605    0.9834049036    0.9621014435         -0.0228
C208       C    0.4365492829    0.9833611900    0.9622537679          -0.019
C209       C    0.4210976426    0.9946858645    0.9962330675         -0.0082
C210       C    0.4365472502    1.0059281460    1.0302151250         -0.0008
C211       C    0.4673668194    1.0056834705    1.0305081421         -0.0036
C212       C    0.4834272920    0.9945066123    0.9963041569          -0.015
C213       C    0.5165289732    0.9945058025    0.9963183664         -0.0188
C214       C    0.5325920125    0.9946054811    1.0339459861          0.0128
C215       C    0.5634300124    0.9945216925    1.0337920375          0.0092
C216       C    0.5788800040    0.9946761196    0.9962330666         -0.0264
C217       C    0.5634103851    0.9947240538    0.9587815375         -0.0581
C218       C    0.5325793543    0.9944397511    0.9586824188         -0.0541
H219       H    0.4783303166    0.9741657590    0.9353032317         -0.0306
H220       H    0.4246660785    0.9744836347    0.9359488306         -0.0244
H221       H    0.4247328631    1.0148901812    1.0565916933          0.0073
H222       H    0.4783834561    1.0148639328    1.0572847910          0.0017
H223       H    0.5216194666    0.9942280064    1.0637159052          0.0413
H224       H    0.5752889643    0.9942956787    1.0629820730          0.0344
H225       H    0.5752374676    0.9950227932    0.9295719875         -0.0861
H226       H    0.5215829272    0.9948185212    0.9289121517         -0.0801
C187       C    0.0264123971    0.1959600361    0.0074102268         -0.0228
C188       C    0.0263479661    0.2267831063    0.0071011180          -0.019
C189       C   -0.0000081262    0.2422194931    0.0014235553         -0.0082
C190       C   -0.0263214079    0.2267557832   -0.0041782731         -0.0008
C191       C   -0.0263599818    0.1959363723   -0.0044542032         -0.0036
C192       C    0.0000467678    0.1798920210    0.0015246493          -0.015
C193       C    0.0000374434    0.1467918474    0.0017019801         -0.0188
C194       C   -0.0222451048    0.1306719143   -0.0189734090          0.0128
C195       C   -0.0221089507    0.0998352993   -0.0188126967          0.0092
C196       C   -0.0000092969    0.0844444030    0.0022995150         -0.0264
C197       C    0.0220872844    0.0999711649    0.0230534466         -0.0581
C198       C    0.0223049084    0.1307999719    0.0226019933         -0.0541
H199       H    0.0473693467    0.1850148252    0.0115204044         -0.0306
H200       H    0.0468138085    0.2386766459    0.0112326993         -0.0244
H201       H   -0.0468754610    0.2385589098   -0.0083839142          0.0073
H202       H   -0.0472725417    0.1849096448   -0.0084975854          0.0017
H203       H   -0.0396201763    0.1415968275   -0.0359989915          0.0413
H204       H   -0.0392264996    0.0879311707   -0.0352106113          0.0344
H205       H    0.0391750099    0.0881906285    0.0396806022         -0.0861
H206       H    0.0396803827    0.1418430197    0.0395057319         -0.0801
C167       C   -0.1616162945    0.4303218689   -0.0249535544         -0.0228
C168       C   -0.1872578090    0.4474299324   -0.0250407349          -0.019
C169       C   -0.2120792253    0.4382492998   -0.0028281553         -0.0082
C170       C   -0.2112696011    0.4118079639    0.0193276246         -0.0008
C171       C   -0.1858366321    0.3943988594    0.0191028148         -0.0036
C172       C   -0.1604067820    0.4033934588   -0.0029480490          -0.015
C173       C   -0.1329455869    0.3849112876   -0.0028858927         -0.0188
C174       C   -0.1342402244    0.3542184843    0.0045846663          0.0128
C175       C   -0.1086008692    0.3370834113    0.0044954063          0.0092
C176       C   -0.0811570754    0.3501904341   -0.0025531586         -0.0264
C177       C   -0.0794226825    0.3804741718   -0.0097845210         -0.0581
C178       C   -0.1049973244    0.3976920559   -0.0102529009         -0.0541
H179       H   -0.1430941879    0.4381989475   -0.0428992698         -0.0306
H180       H   -0.1878401850    0.4678269436   -0.0424329116         -0.0244
H181       H   -0.2303695891    0.4046086928    0.0368070929          0.0073
H182       H   -0.1861242668    0.3742618792    0.0370034440          0.0017
H183       H   -0.1549634099    0.3430776866    0.0098214210          0.0413
H184       H   -0.1101373691    0.3135601094    0.0098705961          0.0344
H185       H   -0.0582168112    0.3908014961   -0.0150197222         -0.0861
H186       H   -0.1025030768    0.4210940025   -0.0155280974         -0.0801
C147       C    0.1320645782    0.3579190194   -0.0219899238         -0.0228
C148       C    0.1064794681    0.3407322883   -0.0225703094          -0.019
C149       C    0.0811797570    0.3502033694   -0.0017103589         -0.0082
C150       C    0.0815558613    0.3768582680    0.0199554204         -0.0008
C151       C    0.1071801236    0.3939644338    0.0211252342         -0.0036
C152       C    0.1329618806    0.3848738930   -0.0000191397          -0.015
C153       C    0.1604222122    0.4033476452    0.0007914587         -0.0188
C154       C    0.1658279226    0.4233820700    0.0335561992          0.0128
C155       C    0.1914847177    0.4404837804    0.0342263603          0.0092
C156       C    0.2120890440    0.4382362536    0.0020992208         -0.0264
C157       C    0.2070688249    0.4186907820   -0.0306045550         -0.0581
C158       C    0.1816453065    0.4012537638   -0.0312304767         -0.0541
H159       H    0.1511430127    0.3495414499   -0.0382516966         -0.0306
H160       H    0.1063344741    0.3200154710   -0.0392148149         -0.0244
H161       H    0.0619850216    0.3844340369    0.0360303720          0.0073
H162       H    0.1063638282    0.4145538671    0.0379397854          0.0017
H163       H    0.1506739878    0.4256902491    0.0592332087          0.0413
H164       H    0.1953225367    0.4554711645    0.0598456177          0.0344
H165       H    0.2228518028    0.4169665025   -0.0557216206         -0.0861
H166       H    0.1785720676    0.3866880986   -0.0574381731         -0.0801
C127       C    0.0180160156    0.4625680039    0.0289322478         -0.0228
C128       C    0.0178992418    0.4317536695    0.0300019993          -0.019
C129       C   -0.0000014404    0.4158203114    0.0027363551         -0.0082
C130       C   -0.0179355643    0.4307794576   -0.0254976077         -0.0008
C131       C   -0.0182217377    0.4615920497   -0.0263640763         -0.0036
C132       C   -0.0001168636    0.4781321803    0.0007749234          -0.015
C133       C   -0.0001263604    0.5112224281   -0.0003802954         -0.0188
C134       C   -0.0247433113    0.5270239599   -0.0155640092          0.0128
C135       C   -0.0246746094    0.5578543265   -0.0164679457          0.0092
C136       C   -0.0000045946    0.5735487650   -0.0027363684         -0.0264
C137       C    0.0245538617    0.5583359011    0.0121671048         -0.0581
C138       C    0.0245091285    0.5275225900    0.0136465002         -0.0541
H139       H    0.0320149980    0.4739115043    0.0508782832         -0.0306
H140       H    0.0317142676    0.4202540843    0.0520822645         -0.0244
H141       H   -0.0317650599    0.4185871744   -0.0468913622          0.0073
H142       H   -0.0322291221    0.4722152858   -0.0489894625          0.0017
H143       H   -0.0443955047    0.5158630327   -0.0261607956          0.0413
H144       H   -0.0438883791    0.5695175255   -0.0278318562          0.0344
H145       H    0.0438085350    0.5703490859    0.0226205942         -0.0861
H146       H    0.0441619656    0.5167220537    0.0250055003         -0.0801
loop_
_geom_bond_atom_site_label_1
_geom_bond_atom_site_label_2
_geom_bond_distance
_geom_bond_site_symmetry_2
_ccdc_geom_bond_type
Co1          O3 1.818       .   S
Co1          O5 1.820       .   S
O9          Co1 1.810       .   S
O11         Co1 1.810       .   S
Co2          O4 1.811       .   S
Co2          O6 1.809       .   S
Co2         O12 1.819       .   S
O10         Co2 1.819       .   S
C7           O3 1.221       .   S
O4           C7 1.346       .   D
C8           O5 1.222       .   S
C8           O6 1.345       .   D
C7         C189 1.613       .   S
C8         C129 1.347       .   S
C14          O9 1.346       .   D
C14         O10 1.221       .   S
C13         O11 1.346       .   D
C13         O12 1.221       .   S
C13        C149 1.476       .   S
C14        C176 1.475       .   S
Co15        O17 1.818       .   S
Co15        O19 1.820       .   S
O23        Co15 1.810       .   S
O25        Co15 1.810       .   S
Co16        O18 1.811       .   S
Co16        O20 1.809       .   S
Co16        O26 1.819       .   S
O24        Co16 1.819       .   S
C21         O17 1.221       .   S
O18         C21 1.346       .   D
C22         O19 1.222       .   S
C22         O20 1.345       .   D
C21        C269 1.613       .   S
C22        C209 1.345       .   S
C28         O23 1.346       .   D
C28         O24 1.221       .   S
C27         O25 1.346       .   D
C27         O26 1.221       .   S
C27        C229 1.476       .   S
C28        C249 1.475       .   S
Co29        O31 1.818       .   S
Co29        O33 1.820       .   S
O37        Co29 1.810       .   S
O39        Co29 1.810       .   S
Co30        O32 1.811       .   S
Co30        O34 1.809       .   S
Co30        O40 1.819       .   S
O38        Co30 1.819       .   S
C35         O31 1.221       .   S
O32         C35 1.346       .   D
C36         O33 1.222       .   S
C36         O34 1.345       .   D
C35        C329 1.614       .   S
C36        C136 1.347   1_656   S
C42         O37 1.346       .   D
C42         O38 1.221       .   S
C41         O39 1.346       .   D
C41         O40 1.221       .   S
C41        C289 1.476       .   S
C42        C309 1.474       .   S
Co43        O45 1.818       .   S
Co43        O47 1.820       .   S
O51        Co43 1.810       .   S
O53        Co43 1.810       .   S
Co44        O46 1.811       .   S
Co44        O48 1.809       .   S
Co44        O54 1.819       .   S
O52        Co44 1.819       .   S
C49         O45 1.221       .   S
O46         C49 1.346       .   D
C50         O47 1.222       .   S
C50         O48 1.345       .   D
C49        C369 1.103       .   S
C50        C389 1.476       .   S
C56         O51 1.346       .   D
C56         O52 1.221       .   S
C55         O53 1.346       .   D
C55         O54 1.221       .   S
C55        C256 1.475       .   S
C56        C349 1.105       .   S
Co57        O59 1.818       .   S
Co57        O61 1.820       .   S
O65        Co57 1.810       .   S
O67        Co57 1.810       .   S
Co58        O60 1.811       .   S
Co58        O62 1.809       .   S
Co58        O68 1.819       .   S
O66        Co58 1.819       .   S
C63         O59 1.221       .   S
O60         C63 1.346       .   D
C64         O61 1.222       .   S
C64         O62 1.345       .   D
C63        C356 1.105   1_554   S
C64        C169 1.475   1_655   S
C70         O65 1.346       .   D
C70         O66 1.221       .   S
C69         O67 1.346       .   D
C69         O68 1.221       .   S
C69        C316 1.474   1_554   S
C70        C409 1.104       .   S
Co71        O73 1.818       .   S
Co71        O75 1.820       .   S
O79        Co71 1.810       .   S
O81        Co71 1.810       .   S
Co72        O74 1.811       .   S
Co72        O76 1.809       .   S
Co72        O82 1.819       .   S
O80        Co72 1.819       .   S
C77         O73 1.221       .   S
O74         C77 1.346       .   D
C78         O75 1.222       .   S
C78         O76 1.345       .   D
C77        C429 1.104       .   S
C78        C296 1.476   1_455   S
C84         O79 1.346       .   D
C84         O80 1.221       .   S
C83         O81 1.346       .   D
C83         O82 1.221       .   S
C83        C156 1.476   1_556   S
C84        C376 1.103       .   S
Co85        O87 1.818       .   S
Co85        O89 1.820       .   S
O93        Co85 1.810       .   S
O95        Co85 1.810       .   S
Co86        O88 1.811       .   S
Co86        O90 1.809       .   S
Co86        O96 1.819       .   S
O94        Co86 1.819       .   S
C91         O87 1.221       .   S
O88         C91 1.346       .   D
C92         O89 1.222       .   S
C92         O90 1.345       .   D
C91        C416 1.104   1_556   S
C92        C236 1.476   1_545   S
C98         O93 1.346       .   D
C98         O94 1.221       .   S
C97         O95 1.346       .   D
C97         O96 1.221       .   S
C97        C456 1.475       .   S
C98        C436 1.104       .   S
Co99       O101 1.818       .   S
Co99       O103 1.820       .   S
O107       Co99 1.810       .   S
O109       Co99 1.810       .   S
Co100      O102 1.811       .   S
Co100      O104 1.809       .   S
Co100      O110 1.819       .   S
O108      Co100 1.819       .   S
C105       O101 1.221       .   S
O102       C105 1.346       .   D
C106       O103 1.222       .   S
C106       O104 1.345       .   D
C105       C469 1.613       .   S
C106       C216 1.345       .   S
C112       O107 1.346       .   D
C112       O108 1.221       .   S
C111       O109 1.346       .   D
C111       O110 1.221       .   S
C111       C396 1.476       .   S
C112       C449 1.475   1_565   S
Co113      O115 1.818       .   S
Co113      O117 1.820       .   S
O121      Co113 1.810       .   S
O123      Co113 1.810       .   S
Co114      O116 1.811       .   S
Co114      O118 1.809       .   S
Co114      O124 1.819       .   S
O122      Co114 1.819       .   S
C119       O115 1.221       .   S
O116       C119 1.346       .   D
C120       O117 1.222       .   S
C120       O118 1.345       .   D
C119       C476 1.613   1_554   S
C120       C276 1.613   1_654   S
C126       O121 1.346       .   D
C126       O122 1.221       .   S
C125       O123 1.346       .   D
C125       O124 1.221       .   S
C125       C196 1.613   1_665   S
C126       C336 1.614   1_554   S
C467       C468 1.397       .   D
C467       C472 1.412       .   S
C467       H479 1.080       .   S
C468       C469 1.396       .   S
C468       H480 1.081       .   S
C469       C470 1.395       .   D
C470       C471 1.397       .   S
C470       H481 1.083       .   S
C471       C472 1.414       .   D
C471       H482 1.079       .   S
C472       C473 1.500       .   S
C473       C474 1.413       .   D
C473       C478 1.413       .   S
C474       C475 1.398       .   S
C474       H483 1.080       .   S
C475       C476 1.397       .   D
C475       H484 1.082       .   S
C476       C477 1.395       .   S
C477       C478 1.398       .   D
C477       H485 1.082       .   S
C478       H486 1.080       .   S
C447       C448 1.397       .   D
C447       C452 1.412       .   S
C447       H459 1.080       .   S
C448       C449 1.396       .   S
C448       H460 1.081       .   S
C449       C450 1.395       .   D
C450       C451 1.397       .   S
C450       H461 1.083       .   S
C451       C452 1.414       .   D
C451       H462 1.079       .   S
C452       C453 1.500       .   S
C453       C454 1.413       .   D
C453       C458 1.413       .   S
C454       C455 1.398       .   S
C454       H463 1.080       .   S
C455       C456 1.397       .   D
C455       H464 1.082       .   S
C456       C457 1.395       .   S
C457       C458 1.398       .   D
C457       H465 1.082       .   S
C458       H466 1.080       .   S
C427       C428 1.397       .   D
C427       C432 1.412       .   S
C427       H439 1.080       .   S
C428       C429 1.396       .   S
C428       H440 1.081       .   S
C429       C430 1.395       .   D
C430       C431 1.397       .   S
C430       H441 1.083       .   S
C431       C432 1.414       .   D
C431       H442 1.079       .   S
C432       C433 1.500       .   S
C433       C434 1.413       .   D
C433       C438 1.413       .   S
C434       C435 1.398       .   S
C434       H443 1.080       .   S
C435       C436 1.397       .   D
C435       H444 1.082       .   S
C436       C437 1.395       .   S
C437       C438 1.398       .   D
C437       H445 1.082       .   S
C438       H446 1.080       .   S
C407       C408 1.397       .   D
C407       C412 1.412       .   S
C407       H419 1.080       .   S
C408       C409 1.396       .   S
C408       H420 1.081       .   S
C409       C410 1.395       .   D
C410       C411 1.397       .   S
C410       H421 1.083       .   S
C411       C412 1.414       .   D
C411       H422 1.079       .   S
C412       C413 1.500       .   S
C413       C414 1.413       .   D
C413       C418 1.413       .   S
C414       C415 1.398       .   S
C414       H423 1.080       .   S
C415       C416 1.397       .   D
C415       H424 1.082       .   S
C416       C417 1.395       .   S
C417       C418 1.398       .   D
C417       H425 1.082       .   S
C418       H426 1.080       .   S
C387       C388 1.397       .   D
C387       C392 1.412       .   S
C387       H399 1.080       .   S
C388       C389 1.396       .   S
C388       H400 1.081       .   S
C389       C390 1.395       .   D
C390       C391 1.397       .   S
C390       H401 1.083       .   S
C391       C392 1.414       .   D
C391       H402 1.079       .   S
C392       C393 1.500       .   S
C393       C394 1.413       .   D
C393       C398 1.413       .   S
C394       C395 1.398       .   S
C394       H403 1.080       .   S
C395       C396 1.397       .   D
C395       H404 1.082       .   S
C396       C397 1.395       .   S
C397       C398 1.398       .   D
C397       H405 1.082       .   S
C398       H406 1.080       .   S
C367       C368 1.397       .   D
C367       C372 1.412       .   S
C367       H379 1.080       .   S
C368       C369 1.396       .   S
C368       H380 1.081       .   S
C369       C370 1.395       .   D
C370       C371 1.397       .   S
C370       H381 1.083       .   S
C371       C372 1.414       .   D
C371       H382 1.079       .   S
C372       C373 1.500       .   S
C373       C374 1.413       .   D
C373       C378 1.413       .   S
C374       C375 1.398       .   S
C374       H383 1.080       .   S
C375       C376 1.397       .   D
C375       H384 1.082       .   S
C376       C377 1.395       .   S
C377       C378 1.398       .   D
C377       H385 1.082       .   S
C378       H386 1.080       .   S
C347       C348 1.397       .   D
C347       C352 1.412       .   S
C347       H359 1.080       .   S
C348       C349 1.396       .   S
C348       H360 1.081       .   S
C349       C350 1.395       .   D
C350       C351 1.397       .   S
C350       H361 1.083       .   S
C351       C352 1.414       .   D
C351       H362 1.079       .   S
C352       C353 1.500       .   S
C353       C354 1.413       .   D
C353       C358 1.413       .   S
C354       C355 1.398       .   S
C354       H363 1.080       .   S
C355       C356 1.397       .   D
C355       H364 1.082       .   S
C356       C357 1.395       .   S
C357       C358 1.398       .   D
C357       H365 1.082       .   S
C358       H366 1.080       .   S
C327       C328 1.397       .   D
C327       C332 1.412       .   S
C327       H339 1.080       .   S
C328       C329 1.396       .   S
C328       H340 1.081       .   S
C329       C330 1.395       .   D
C330       C331 1.397       .   S
C330       H341 1.083       .   S
C331       C332 1.414       .   D
C331       H342 1.079       .   S
C332       C333 1.500       .   S
C333       C334 1.413       .   D
C333       C338 1.413       .   S
C334       C335 1.398       .   S
C334       H343 1.080       .   S
C335       C336 1.397       .   D
C335       H344 1.082       .   S
C336       C337 1.395       .   S
C337       C338 1.398       .   D
C337       H345 1.082       .   S
C338       H346 1.080       .   S
C307       C308 1.397       .   D
C307       C312 1.412       .   S
C307       H319 1.080       .   S
C308       C309 1.396       .   S
C308       H320 1.081       .   S
C309       C310 1.395       .   D
C310       C311 1.397       .   S
C310       H321 1.083       .   S
C311       C312 1.414       .   D
C311       H322 1.079       .   S
C312       C313 1.500       .   S
C313       C314 1.413       .   D
C313       C318 1.413       .   S
C314       C315 1.398       .   S
C314       H323 1.080       .   S
C315       C316 1.397       .   D
C315       H324 1.082       .   S
C316       C317 1.395       .   S
C317       C318 1.398       .   D
C317       H325 1.082       .   S
C318       H326 1.080       .   S
C287       C288 1.397       .   D
C287       C292 1.412       .   S
C287       H299 1.080       .   S
C288       C289 1.396       .   S
C288       H300 1.081       .   S
C289       C290 1.395       .   D
C290       C291 1.397       .   S
C290       H301 1.083       .   S
C291       C292 1.414       .   D
C291       H302 1.079       .   S
C292       C293 1.500       .   S
C293       C294 1.413       .   D
C293       C298 1.413       .   S
C294       C295 1.398       .   S
C294       H303 1.080       .   S
C295       C296 1.397       .   D
C295       H304 1.082       .   S
C296       C297 1.395       .   S
C297       C298 1.398       .   D
C297       H305 1.082       .   S
C298       H306 1.080       .   S
C267       C268 1.397       .   D
C267       C272 1.412       .   S
C267       H279 1.080       .   S
C268       C269 1.396       .   S
C268       H280 1.081       .   S
C269       C270 1.395       .   D
C270       C271 1.397       .   S
C270       H281 1.083       .   S
C271       C272 1.414       .   D
C271       H282 1.079       .   S
C272       C273 1.500       .   S
C273       C274 1.413       .   D
C273       C278 1.413       .   S
C274       C275 1.398       .   S
C274       H283 1.080       .   S
C275       C276 1.397       .   D
C275       H284 1.082       .   S
C276       C277 1.395       .   S
C277       C278 1.398       .   D
C277       H285 1.082       .   S
C278       H286 1.080       .   S
C247       C248 1.397       .   D
C247       C252 1.412       .   S
C247       H259 1.080       .   S
C248       C249 1.396       .   S
C248       H260 1.081       .   S
C249       C250 1.395       .   D
C250       C251 1.397       .   S
C250       H261 1.083       .   S
C251       C252 1.414       .   D
C251       H262 1.079       .   S
C252       C253 1.500       .   S
C253       C254 1.413       .   D
C253       C258 1.413       .   S
C254       C255 1.398       .   S
C254       H263 1.080       .   S
C255       C256 1.397       .   D
C255       H264 1.082       .   S
C256       C257 1.395       .   S
C257       C258 1.398       .   D
C257       H265 1.082       .   S
C258       H266 1.080       .   S
C227       C228 1.397       .   D
C227       C232 1.412       .   S
C227       H239 1.080       .   S
C228       C229 1.396       .   S
C228       H240 1.081       .   S
C229       C230 1.395       .   D
C230       C231 1.397       .   S
C230       H241 1.083       .   S
C231       C232 1.414       .   D
C231       H242 1.079       .   S
C232       C233 1.500       .   S
C233       C234 1.413       .   D
C233       C238 1.413       .   S
C234       C235 1.398       .   S
C234       H243 1.080       .   S
C235       C236 1.397       .   D
C235       H244 1.082       .   S
C236       C237 1.395       .   S
C237       C238 1.398       .   D
C237       H245 1.082       .   S
C238       H246 1.080       .   S
C207       C208 1.397       .   D
C207       C212 1.412       .   S
C207       H219 1.080       .   S
C208       C209 1.396       .   S
C208       H220 1.081       .   S
C209       C210 1.395       .   D
C210       C211 1.397       .   S
C210       H221 1.083       .   S
C211       C212 1.414       .   D
C211       H222 1.079       .   S
C212       C213 1.500       .   S
C213       C214 1.413       .   D
C213       C218 1.413       .   S
C214       C215 1.398       .   S
C214       H223 1.080       .   S
C215       C216 1.397       .   D
C215       H224 1.082       .   S
C216       C217 1.395       .   S
C217       C218 1.398       .   D
C217       H225 1.082       .   S
C218       H226 1.080       .   S
C187       C188 1.397       .   D
C187       C192 1.412       .   S
C187       H199 1.080       .   S
C188       C189 1.396       .   S
C188       H200 1.081       .   S
C189       C190 1.395       .   D
C190       C191 1.397       .   S
C190       H201 1.083       .   S
C191       C192 1.414       .   D
C191       H202 1.079       .   S
C192       C193 1.500       .   S
C193       C194 1.413       .   D
C193       C198 1.413       .   S
C194       C195 1.398       .   S
C194       H203 1.080       .   S
C195       C196 1.397       .   D
C195       H204 1.082       .   S
C196       C197 1.395       .   S
C197       C198 1.398       .   D
C197       H205 1.082       .   S
C198       H206 1.080       .   S
C167       C168 1.397       .   D
C167       C172 1.412       .   S
C167       H179 1.080       .   S
C168       C169 1.396       .   S
C168       H180 1.081       .   S
C169       C170 1.395       .   D
C170       C171 1.397       .   S
C170       H181 1.083       .   S
C171       C172 1.414       .   D
C171       H182 1.079       .   S
C172       C173 1.500       .   S
C173       C174 1.413       .   D
C173       C178 1.413       .   S
C174       C175 1.398       .   S
C174       H183 1.080       .   S
C175       C176 1.397       .   D
C175       H184 1.082       .   S
C176       C177 1.395       .   S
C177       C178 1.398       .   D
C177       H185 1.082       .   S
C178       H186 1.080       .   S
C147       C148 1.397       .   D
C147       C152 1.412       .   S
C147       H159 1.080       .   S
C148       C149 1.396       .   S
C148       H160 1.081       .   S
C149       C150 1.395       .   D
C150       C151 1.397       .   S
C150       H161 1.083       .   S
C151       C152 1.414       .   D
C151       H162 1.079       .   S
C152       C153 1.500       .   S
C153       C154 1.413       .   D
C153       C158 1.413       .   S
C154       C155 1.398       .   S
C154       H163 1.080       .   S
C155       C156 1.397       .   D
C155       H164 1.082       .   S
C156       C157 1.395       .   S
C157       C158 1.398       .   D
C157       H165 1.082       .   S
C158       H166 1.080       .   S
C127       C128 1.397       .   D
C127       C132 1.412       .   S
C127       H139 1.080       .   S
C128       C129 1.396       .   S
C128       H140 1.081       .   S
C129       C130 1.395       .   D
C130       C131 1.397       .   S
C130       H141 1.083       .   S
C131       C132 1.414       .   D
C131       H142 1.079       .   S
C132       C133 1.500       .   S
C133       C134 1.413       .   D
C133       C138 1.413       .   S
C134       C135 1.398       .   S
C134       H143 1.080       .   S
C135       C136 1.397       .   D
C135       H144 1.082       .   S
C136       C137 1.395       .   S
C137       C138 1.398       .   D
C137       H145 1.082       .   S
C138       H146 1.080       .   S
