data_3c_Co_Na
_audit_creation_date              2020-10-22
_audit_creation_method            'adam'
_symmetry_space_group_name_H-M    'P1'
_symmetry_Int_Tables_number       1
_symmetry_cell_setting            triclinic
loop_
_symmetry_equiv_pos_as_xyz
  x,y,z
_cell_length_a                    20
_cell_length_b                    20
_cell_length_c                    20
_cell_angle_alpha                 90
_cell_angle_beta                  90
_cell_angle_gamma                 90
loop_
_atom_site_label
_atom_site_type_symbol
_atom_site_fract_x
_atom_site_fract_y
_atom_site_fract_z
Co1 Co -0.08778 -0.008805 0.011704
Co2 Co 0.070261 0.016633 0.003638
X3 C 0.00812 -0.087516 0.048891
O4 O 0.114859 0.009925 0.080838
O5 O -0.123662 -0.032641 0.090604
O6 O -0.037776 -0.100128 0.102024
O7 O 0.060555 -0.084798 0.098354
X8 C -0.097762 -0.076496 0.122174
X9 C 0.106547 -0.0467 0.113953
O10 O 0.019875 -0.162455 0.04477
H11 H -0.012593 -0.195186 0.065899
H12 H 0.062767 -0.18327 0.061924
O13 O 0.061267 -0.076132 -0.006241
O14 O -0.0503 -0.093613 -0.00218
H15 H -0.086481 -0.127371 0.006851
H16 H -0.042594 -0.099876 -0.050438
H17 H 0.052122 -0.086925 -0.053622
H18 H 0.106777 -0.096717 -0.000652
O19 O -0.00422 -0.01074 0.050328
H20 H -0.006284 0.011925 0.094649
O21 O -0.174118 -0.021094 -0.023695
H22 H -0.183065 0.010125 -0.061272
O23 O 0.153234 0.030714 -0.038035
H24 H 0.148367 0.056821 -0.0799
H25 H -0.206959 -0.0063 0.010585
H26 H 0.179648 0.061034 -0.008723
O27 O -0.067919 0.01765 -0.071394
O28 O 0.036121 0.02777 -0.076359
X29 C -0.022445 0.050619 -0.089972
O30 O -0.10457 0.083645 0.02865
H31 H -0.136461 0.098182 -0.006696
O32 O 0.057134 0.110825 0.015387
H33 H 0.085108 0.124688 0.053745
H34 H -0.132809 0.087288 0.068777
H35 H 0.082515 0.135231 -0.019585
Na36 Na -0.035833 0.171574 0.033821
O37 O -0.023998 0.154553 0.133346
H38 H -0.001085 0.194546 0.151985
H39 H -0.06905 0.152268 0.153493
O40 O 0.027219 0.253898 0.040054
H41 H 0.007676 0.285072 0.072933
O42 O -0.118428 0.22859 0.050204
H43 H -0.160982 0.206226 0.038673
O44 O -0.047134 0.189343 -0.067993
H45 H -0.019676 0.225544 -0.087885
H46 H -0.115198 0.271799 0.026369
H47 H -0.094678 0.199968 -0.077969
H48 H 0.027523 0.278913 -0.002726
loop_
_geom_bond_atom_site_label_1
_geom_bond_atom_site_label_2
_geom_bond_distance
_geom_bond_site_symmetry_2
_ccdc_geom_bond_type
Co1 O21 1.8823878161882583 . S
Co1 O27 1.7887979249848207 . S
Co1 O30 1.9095531137027846 . S
Co2 O23 1.8782394497044301 . S
Co2 O28 1.7537585011893742 . S
Co2 O32 1.9165078075742346 . S
X3 O6 1.4266710902790454 . S
X3 O7 1.4426753128275258 . S
X3 O10 1.5193401137033142 . S
X3 O19 1.5554998302944298 . S
O4 Co2 1.788149244374753 . S
O5 Co1 1.7978717044867243 . S
X8 O5 1.1984467749170176 . D
X8 O6 1.3509851820227339 . S
X9 O4 1.3224441853367574 . S
X9 O7 1.2345214825648034 . D
O10 H11 1.0142878984021253 . S
O10 H12 1.013367768535195 . S
O13 Co2 1.87443821598846 . S
O13 X3 1.5483954362167955 . S
O13 H17 0.9889469431905838 . S
O13 H18 1.0052111235486803 . S
O14 Co1 1.8750927691879673 . S
O14 X3 1.5567162615393342 . S
O14 H15 1.0060219379516535 . S
O14 H16 0.98538025966578 . S
O19 Co1 1.8414996229014005 . S
O19 Co2 1.8413776823158794 . S
O19 H20 0.996439721557205 . S
O21 H22 0.9933206551793835 . S
O21 H25 0.9944859645012595 . S
O23 H24 0.9915533628711064 . S
O23 H26 0.995214107358311 . S
O27 X29 1.183209010980731 . D
X29 O28 1.2864400706985926 . S
O30 H31 0.9955291189312343 . S
O30 H34 0.9840544546289094 . S
O30 Na36 2.234536484714671 . S
O32 H33 0.9891559413045042 . S
O32 H35 0.9925446613568581 . S
Na36 O32 2.251505989524567 . S
Na36 O37 2.033211900336264 . S
Na36 O40 2.077660854435343 . S
Na36 O42 2.0338179071315605 . S
Na36 O44 2.0793939303280173 . S
O37 H38 0.9943768005228196 . S
O37 H39 0.9880882770947139 . S
O40 H41 0.986871367184194 . S
O40 H48 0.9911619605099865 . S
O42 H43 0.9887387588787037 . S
O42 H46 0.9890584964323396 . S
O44 H45 0.9919840529544817 . S
O44 H47 0.9945474454248024 . S
