data_3c_Co_S
_audit_creation_date              2020-10-22
_audit_creation_method            'adam'
_symmetry_space_group_name_H-M    'P1'
_symmetry_Int_Tables_number       1
_symmetry_cell_setting            triclinic
loop_
_symmetry_equiv_pos_as_xyz
  x,y,z
_cell_length_a                    20
_cell_length_b                    20
_cell_length_c                    20
_cell_angle_alpha                 90
_cell_angle_beta                  90
_cell_angle_gamma                 90
loop_
_atom_site_label
_atom_site_type_symbol
_atom_site_fract_x
_atom_site_fract_y
_atom_site_fract_z
Co1 Co -0.194306 0.049208 -0.025049
Co2 Co 0.019504 0.06433 0.002273
Co3 Co -0.081306 -0.137434 -0.014034
O4 O -0.228657 -0.035401 -0.017441
O5 O -0.17353 -0.139233 -0.014408
X6 C -0.227308 -0.09656 -0.013734
X7 C 0.065813 -0.078017 -0.001773
X8 C -0.094247 0.162479 -0.015533
O9 O -0.154223 0.132481 -0.029685
O10 O -0.039997 0.135544 -0.003375
O11 O 0.068635 -0.0156 0.00544
O12 O 0.011476 -0.121224 -0.008905
S13 S -0.080386 -0.01084 -0.064367
O14 O -0.13931 0.041439 -0.095187
O15 O -0.06785 -0.090028 -0.088199
O16 O -0.00733 0.024189 -0.072997
O17 O -0.074238 -0.011781 -0.140832
O18 O -0.255188 0.053949 -0.091688
O19 O -0.249619 0.05817 0.046215
C20 C -0.313899 0.065886 0.017925
C21 C -0.317491 0.056863 -0.059579
H22 H -0.343655 0.009296 -0.071528
H23 H -0.347236 0.098228 -0.081208
H24 H -0.333119 0.115813 0.031416
H25 H -0.347683 0.027917 0.040707
O26 O -0.086762 -0.204453 -0.076095
O27 O -0.097657 -0.187086 0.061203
C28 C -0.109155 -0.259738 -0.038895
C29 C -0.090156 -0.253488 0.036178
H30 H -0.087948 -0.307093 -0.05952
H31 H -0.164191 -0.262806 -0.044994
H32 H -0.037353 -0.268964 0.042916
H33 H -0.121736 -0.290119 0.064136
O34 O 0.091269 0.092875 -0.056111
O35 O 0.065287 0.089191 0.081719
C36 C 0.111561 0.130843 0.051773
C37 C 0.12747 0.143531 -0.024245
H38 H 0.125355 0.163079 -0.076374
H39 H 0.170671 0.107135 -0.029259
H40 H 0.15386 0.186753 0.00028
H41 H 0.121672 0.151857 0.102232
H42 H 0.064959 0.157749 0.036664
H43 H 0.139569 0.082715 0.053068
loop_
_geom_bond_atom_site_label_1
_geom_bond_atom_site_label_2
_geom_bond_distance
_geom_bond_site_symmetry_2
_ccdc_geom_bond_type
Co1 O18 1.8077415400535004 . S
Co1 O19 1.8130971246640373 . S
Co2 O16 1.7885086885246042 . S
Co2 O34 1.9363522979277301 . S
Co2 O35 1.9000897958670269 . S
Co3 O5 1.8448458477271212 . S
Co3 O26 1.83006886042329 . S
Co3 O27 1.8322901698762126 . S
O4 Co1 1.8326690908543748 . S
O5 X6 1.3730886382764953 . S
X6 O4 1.2257179383549055 . D
X7 O11 1.2579053783627765 . D
X7 O12 1.3957404462735898 . S
X8 O9 1.3707314873530119 . S
X8 O10 1.2355219343463717 . D
O9 Co1 1.8506763664133714 . S
O10 Co2 1.8594360852408989 . S
O11 Co2 1.877535600831313 . S
O12 Co3 1.8865399497180015 . S
S13 O17 1.5343572760442727 . D
O14 Co1 1.7893307534975194 . S
O14 S13 1.6917570790361718 . S
O15 Co3 1.780894948462991 . S
O15 S13 1.672820978513242 . S
O16 S13 1.6295552424284363 . S
O18 C21 1.4030112239358603 . S
O19 C20 1.4130664574254819 . S
C20 H24 1.103463692498308 . S
C20 H25 1.1139201899745779 . S
C21 C20 1.5622167276460073 . S
C21 H22 1.1117396803757613 . S
C21 H23 1.1070074366800793 . S
O26 C28 1.4059346978394838 . S
C28 C29 1.5538460335454733 . S
C28 H30 1.11672067456728 . S
C28 H31 1.1091657913878339 . S
C29 O27 1.4271266184813451 . S
C29 H32 1.1086977869645092 . S
C29 H33 1.117276798506082 . S
O34 C37 1.3988516721986646 . S
O35 C36 1.3817192642342366 . S
C36 H41 1.1117383153822666 . S
C36 H42 1.1178453503571053 . S
C36 H43 1.113988434145077 . S
C37 C36 1.5739009450499102 . S
C37 H38 1.1142683283433124 . S
C37 H39 1.1342183676391417 . S
C37 H40 1.1253587017609095 . S
