data_3c_U
_audit_creation_date              2020-10-22
_audit_creation_method            'adam'
_symmetry_space_group_name_H-M    'P1'
_symmetry_Int_Tables_number       1
_symmetry_cell_setting            triclinic
loop_
_symmetry_equiv_pos_as_xyz
  x,y,z
_cell_length_a                    20
_cell_length_b                    20
_cell_length_c                    20
_cell_angle_alpha                 90
_cell_angle_beta                  90
_cell_angle_gamma                 90
loop_
_atom_site_label
_atom_site_type_symbol
_atom_site_fract_x
_atom_site_fract_y
_atom_site_fract_z
U1 U 0.0 0.0 0.099303
X2 C 0.048171 -0.132925 0.091485
X3 C -0.139966 0.023328 0.110671
X4 C 0.089281 0.108975 0.113406
O5 O -0.019227 -0.112889 0.094405
O6 O 0.086772 -0.074185 0.093897
O7 O -0.10835 -0.038571 0.10085
O8 O -0.08876 0.070831 0.117645
O9 O 0.10603 0.040674 0.112134
O10 O 0.019227 0.112648 0.107658
O11 O 0.0 0.0 0.0
O12 O 0.003047 -0.01384 0.19769
loop_
_geom_bond_atom_site_label_1
_geom_bond_atom_site_label_2
_geom_bond_distance
_geom_bond_site_symmetry_2
_ccdc_geom_bond_type
U1 O11 1.9860600000000002 . D
U1 O12 1.9880474418886487 . D
X2 O5 1.407474063704195 . S
X2 O6 1.4065905651610209 . S
X3 O7 1.4039244563722084 . S
X3 O8 1.4038840580332839 . S
X4 O9 1.4067229415915556 . S
X4 O10 1.407706411010478 . S
O5 U1 2.2923869005034905 . S
O6 U1 2.2857838082373405 . S
O7 U1 2.300420635449091 . S
O8 U1 2.300590978422718 . S
O9 U1 2.28572699480931 . S
O10 U1 2.2916418095330693 . S
