data_3c_W_CH3
_audit_creation_date              2020-10-22
_audit_creation_method            'adam'
_symmetry_space_group_name_H-M    'P1'
_symmetry_Int_Tables_number       1
_symmetry_cell_setting            triclinic
loop_
_symmetry_equiv_pos_as_xyz
  x,y,z
_cell_length_a                    20
_cell_length_b                    20
_cell_length_c                    20
_cell_angle_alpha                 90
_cell_angle_beta                  90
_cell_angle_gamma                 90
loop_
_atom_site_label
_atom_site_type_symbol
_atom_site_fract_x
_atom_site_fract_y
_atom_site_fract_z
W1 W 0.0 0.0 0.131694
W2 W 0.0 0.0 0.0
X3 C 0.056692 0.116288 0.067177
X4 C 0.122531 -0.040176 0.064563
X5 C -0.049191 -0.119075 0.064811
O6 O -0.040099 -0.08942 0.125534
O7 O -0.040521 -0.090554 0.010488
O8 O 0.040952 0.089558 0.006212
O9 O 0.041492 0.090662 0.121742
O10 O 0.088832 -0.041396 0.122872
O11 O 0.095897 -0.0253 0.011296
O12 O 0.000459 0.000292 -0.101308
O13 O -0.003498 -0.011088 0.231721
C14 C 0.05505 0.037004 -0.1249
H15 H 0.048054 0.090499 -0.112707
H16 H 0.055555 0.034355 -0.180313
H17 H 0.103009 0.016909 -0.105946
C18 C 0.021156 0.045164 0.263791
H19 H 0.02535 0.031481 0.317473
H20 H -0.014408 0.08718 0.259017
H21 H 0.07211 0.056922 0.245399
Br22 Br -0.121257 0.032879 -0.020101
Br23 Br -0.114959 0.051639 0.149368
loop_
_geom_bond_atom_site_label_1
_geom_bond_atom_site_label_2
_geom_bond_distance
_geom_bond_site_symmetry_2
_ccdc_geom_bond_type
W1 O13 2.0140089847863147 . S
W1 Br23 2.545154476883476 . S
W2 W1 2.63388 . S
W2 O12 2.026189212191201 . S
W2 Br22 2.5446680640900885 . S
X3 O8 1.368060192389209 . S
X3 O9 1.2433939200430406 . D
X4 O10 1.3471526241669871 . S
X4 O11 1.2276870319425874 . D
X5 O6 1.3637252242295737 . S
X5 O7 1.239290873039901 . D
O6 W1 1.9638545568345942 . S
O7 W2 1.995191870572853 . S
O8 W2 1.9734528737215895 . S
O9 W1 2.0040186238655573 . S
O10 W1 1.9680021060964341 . S
O11 W2 1.996389162963975 . S
O12 C14 1.3977883515039033 . S
O13 C18 1.3857261085799024 . S
C14 H15 1.1062238995791038 . S
C14 H16 1.109571592102105 . S
C14 H17 1.1069108043559788 . S
C18 H19 1.111138380040939 . S
C18 H20 1.1050671342502225 . S
C18 H21 1.1086615974227658 . S
