data_3c_Zn
_audit_creation_date              2020-10-22
_audit_creation_method            'adam'
_symmetry_space_group_name_H-M    'P1'
_symmetry_Int_Tables_number       1
_symmetry_cell_setting            triclinic
loop_
_symmetry_equiv_pos_as_xyz
  x,y,z
_cell_length_a                    20
_cell_length_b                    20
_cell_length_c                    20
_cell_angle_alpha                 90
_cell_angle_beta                  90
_cell_angle_gamma                 90
loop_
_atom_site_label
_atom_site_type_symbol
_atom_site_fract_x
_atom_site_fract_y
_atom_site_fract_z
Zn1 Zn -0.099076 0.04822 0.013083
Zn2 Zn -0.054344 -0.092876 -0.073224
X3 C 0.023248 0.02745 -0.052923
O4 O -0.01453 0.061677 -0.00939
X5 C -0.150336 0.007627 -0.113418
O6 O -0.150016 0.048697 -0.060007
O7 O -0.115987 -0.042912 -0.118389
O8 O -0.121278 0.110678 0.060239
O9 O 0.000744 -0.139472 -0.035332
O10 O -0.109212 -0.111109 -0.014364
O11 O -0.110125 -0.026484 0.060178
X12 C -0.129637 -0.086606 0.037772
O13 O 0.007517 -0.026816 -0.0759
O14 O -0.052091 -0.144521 -0.136019
loop_
_geom_bond_atom_site_label_1
_geom_bond_atom_site_label_2
_geom_bond_distance
_geom_bond_site_symmetry_2
_ccdc_geom_bond_type
Zn1 O8 1.6269643946715617 . D
Zn1 O11 1.7799622912224855 . S
Zn2 O9 1.6299372678670798 . D
Zn2 O10 1.6501516127886555 . D
Zn2 O13 1.8108439901482403 . S
Zn2 O14 1.6267107106298895 . D
X3 O4 1.3407072269089924 . S
O4 Zn1 1.7702195662225069 . S
X5 O6 1.3475359806127627 . S
X5 O7 1.2261704431623688 . D
O6 Zn1 1.7818218497868972 . S
O7 Zn2 1.8260483729304653 . S
O10 X12 1.2224059360343436 . D
O11 X12 1.3412523263525025 . S
O13 X3 1.2198830670281475 . D
