data_4c_4Cu_SO4
_audit_creation_date              2020-10-22
_audit_creation_method            'adam'
_symmetry_space_group_name_H-M    'P1'
_symmetry_Int_Tables_number       1
_symmetry_cell_setting            triclinic
loop_
_symmetry_equiv_pos_as_xyz
  x,y,z
_cell_length_a                    20
_cell_length_b                    20
_cell_length_c                    20
_cell_angle_alpha                 90
_cell_angle_beta                  90
_cell_angle_gamma                 90
loop_
_atom_site_label
_atom_site_type_symbol
_atom_site_fract_x
_atom_site_fract_y
_atom_site_fract_z
Cu1 Cu -0.05026 0.014517 0.043103
Cu2 Cu -0.055473 -0.124519 0.043463
Cu3 Cu -0.193243 -0.038118 -0.006618
Cu4 Cu 0.083563 -0.050527 -0.017912
O5 O -0.190007 0.057168 -0.018917
O6 O -0.104942 0.090065 0.049229
O7 O 0.020056 0.077326 0.055332
O8 O 0.10104 0.041774 -0.016695
O9 O -0.11223 -0.196767 0.047219
O10 O 0.012125 -0.18832 0.057939
O11 O -0.194993 -0.1351 -0.00179
O12 O 0.062519 -0.14251 -0.029258
X13 C -0.16933 -0.192085 0.025725
X14 C 0.059867 -0.188476 0.019941
X15 C 0.074232 0.085467 0.027523
X16 C -0.156263 0.101796 0.006717
O17 O -0.116708 -0.053554 0.04755
O18 O 0.012157 -0.057944 0.044852
H19 H -0.129393 -0.054394 0.095371
H20 H 0.027808 -0.058566 0.091777
O21 O -0.234739 -0.012258 0.076154
O22 O -0.261273 -0.023148 -0.071385
O23 O 0.139736 -0.051712 0.06099
O24 O 0.146585 -0.039117 -0.088925
H25 H -0.268282 0.022841 0.066389
H26 H -0.262302 -0.051482 0.088606
H27 H -0.237347 -0.014579 -0.113895
H28 H -0.282428 -0.067404 -0.078089
H29 H 0.132076 -0.012475 0.090145
H30 H 0.186538 -0.046949 0.045685
H31 H 0.142625 -0.079824 -0.11682
H32 H 0.191637 -0.042861 -0.068791
O33 O -0.063641 0.017479 -0.05196
O34 O -0.06917 -0.127211 -0.051934
S35 S -0.053589 -0.055274 -0.09446
O36 O 0.014149 -0.057523 -0.130226
O37 O -0.104188 -0.053327 -0.152162
loop_
_geom_bond_atom_site_label_1
_geom_bond_atom_site_label_2
_geom_bond_distance
_geom_bond_site_symmetry_2
_ccdc_geom_bond_type
Cu1 O6 1.8692448145331313 . S
Cu1 O7 1.9014558560324244 . S
Cu1 O33 1.9208997201709932 . S
Cu2 O9 1.839047816068685 . S
Cu2 O10 1.8814560450621747 . S
Cu2 O18 1.8981883029934095 . S
Cu2 O34 1.9282455950853359 . S
Cu3 O5 1.9226289921765978 . S
Cu3 O11 1.9423420189809517 . S
Cu3 O21 1.922692070364363 . S
Cu3 O22 1.902289251313007 . S
Cu4 O8 1.8789845874777684 . S
Cu4 O12 1.9007828287760808 . S
Cu4 O23 1.937250320935062 . S
Cu4 O24 1.9125703565675698 . S
O6 X16 1.3533376821566003 . S
O7 X15 1.228771364149572 . D
O10 X14 1.220376145073313 . D
O11 X13 1.3657223230942663 . S
O12 X14 1.3476576170459618 . S
X13 O9 1.2238214182293916 . D
X15 O8 1.353958065403061 . S
X16 O5 1.2308481569141663 . D
O17 Cu1 1.904599406834151 . S
O17 Cu2 1.8764257167927008 . S
O17 Cu3 1.9005315101639333 . S
O17 H19 0.9896399598328678 . S
O18 Cu1 1.9130562283688892 . S
O18 Cu4 1.9071680698758562 . S
O18 H20 0.9894007142033 . S
O21 H25 0.9904562986714757 . S
O21 H26 0.9906192375746594 . S
O22 H27 0.9905533280131867 . S
O22 H28 0.9901528324768856 . S
O23 H29 0.9895908502962222 . S
O23 H30 0.9894188747669005 . S
O24 H31 0.9901145221286272 . S
O24 H32 0.9897563701608594 . S
O33 S35 1.6970849165969861 . S
O34 S35 1.7001432060194224 . S
S35 O36 1.5326785308736468 . D
S35 O37 1.5353988774758174 . D
