data_4c_Al_pw
_audit_creation_date              2020-10-22
_audit_creation_method            'adam'
_symmetry_space_group_name_H-M    'P1'
_symmetry_Int_Tables_number       1
_symmetry_cell_setting            triclinic
loop_
_symmetry_equiv_pos_as_xyz
  x,y,z
_cell_length_a                    20
_cell_length_b                    20
_cell_length_c                    20
_cell_angle_alpha                 90
_cell_angle_beta                  90
_cell_angle_gamma                 90
loop_
_atom_site_label
_atom_site_type_symbol
_atom_site_fract_x
_atom_site_fract_y
_atom_site_fract_z
Al1 Al -0.119085 0.08793 -0.006789
Al2 Al -0.073953 -0.060061 -0.005552
O3 O -0.200358 0.04654 -0.018355
O4 O -0.165273 -0.06666 -0.017167
O5 O -0.027547 0.098936 0.005119
O6 O 0.00606 -0.013401 0.00585
X7 C -0.211414 -0.014934 -0.021533
X8 C 0.016597 0.054947 0.009303
O9 O -0.081839 0.076667 -0.090698
O10 O -0.047944 -0.035331 -0.090559
O11 O -0.103804 0.071402 0.082931
O12 O -0.069835 -0.040565 0.08454
X13 C -0.084079 0.012742 0.113374
X14 C -0.054933 0.019698 -0.118787
X15 C -0.075393 -0.159696 -0.008756
X16 C -0.171266 0.173046 -0.010796
H17 H -0.101867 -0.179664 0.035721
H18 H -0.100584 -0.177224 -0.05498
H19 H -0.02307 -0.178106 -0.008565
H20 H -0.143994 0.211876 0.017954
H21 H -0.222233 0.167478 0.010394
loop_
_geom_bond_atom_site_label_1
_geom_bond_atom_site_label_2
_geom_bond_distance
_geom_bond_site_symmetry_2
_ccdc_geom_bond_type
Al1 O3 1.8387061661252453 . S
Al1 O5 1.859275515125717 . S
Al1 X16 1.998363596823661 . S
Al2 O4 1.845836410652634 . S
Al2 O6 1.8664629491447187 . S
Al2 X15 1.9939436069580803 . S
X7 O3 1.2508217276598612 . D
X7 O4 1.3890491340226234 . S
X8 O5 1.2491870963074347 . D
X8 O6 1.384832189005585 . S
O9 Al1 1.8498604524333722 . S
O10 Al2 1.8454528361621707 . S
O10 X14 1.2448109962809615 . D
O11 Al1 1.8500013530711268 . S
O12 Al2 1.8453870092514468 . S
X13 O11 1.3793936439269248 . S
X13 O12 1.2451426797576253 . D
X14 O9 1.3796291575851096 . S
X15 H17 1.1095449477605672 . S
X15 H18 1.1096793173101858 . S
X15 H19 1.109360913332086 . S
X16 H20 1.1096059134895593 . S
X16 H21 1.1095274096781025 . S
