data_4c_Bi_pw
_audit_creation_date              2020-10-22
_audit_creation_method            'adam'
_symmetry_space_group_name_H-M    'P1'
_symmetry_Int_Tables_number       1
_symmetry_cell_setting            triclinic
loop_
_symmetry_equiv_pos_as_xyz
  x,y,z
_cell_length_a                    20
_cell_length_b                    20
_cell_length_c                    20
_cell_angle_alpha                 90
_cell_angle_beta                  90
_cell_angle_gamma                 90
loop_
_atom_site_label
_atom_site_type_symbol
_atom_site_fract_x
_atom_site_fract_y
_atom_site_fract_z
Bi1 Bi -0.09086 0.101106 0.013943
Bi2 Bi -0.107522 -0.028499 0.024748
O3 O -0.19411 0.107296 0.034479
O4 O -0.207952 -0.005577 0.043752
O5 O 0.010866 0.081452 -0.00551
O6 O -0.003889 -0.032213 0.003994
X7 C -0.23049 0.058618 0.044631
X8 C 0.033836 0.023987 -0.006862
O9 O -0.085987 0.079599 -0.088829
O10 O -0.101399 -0.031167 -0.080128
O11 O -0.046066 0.090915 0.108486
O12 O -0.06118 -0.019766 0.118662
X13 C -0.040356 0.032699 0.141924
X14 C -0.092388 0.017948 -0.115253
loop_
_geom_bond_atom_site_label_1
_geom_bond_atom_site_label_2
_geom_bond_distance
_geom_bond_site_symmetry_2
_ccdc_geom_bond_type
Bi1 Bi2 2.622357624775652 . S
Bi1 O3 2.1090859411870824 . S
Bi1 O5 2.1083642209656275 . S
Bi2 O4 2.09501706434172 . S
Bi2 O6 2.115107516114961 . S
X7 O3 1.232240597091331 . D
X7 O4 1.3608530429392443 . S
X8 O5 1.2380108469823679 . D
X8 O6 1.371046067340919 . S
O9 Bi1 2.1022427265101906 . S
O10 Bi2 2.1017711366685483 . S
O10 X14 1.221032050873768 . D
O11 Bi1 2.102261460891342 . S
O12 Bi2 2.101770002117501 . S
X13 O11 1.3475748005127584 . S
X13 O12 1.2210324680801898 . D
X14 O9 1.3475778482900347 . S
