data_4c_Co_N
_audit_creation_date              2020-10-22
_audit_creation_method            'adam'
_symmetry_space_group_name_H-M    'P1'
_symmetry_Int_Tables_number       1
_symmetry_cell_setting            triclinic
loop_
_symmetry_equiv_pos_as_xyz
  x,y,z
_cell_length_a                    20
_cell_length_b                    20
_cell_length_c                    20
_cell_angle_alpha                 90
_cell_angle_beta                  90
_cell_angle_gamma                 90
loop_
_atom_site_label
_atom_site_type_symbol
_atom_site_fract_x
_atom_site_fract_y
_atom_site_fract_z
Co1 Co -0.157269 0.069606 -0.001232
Co2 Co 0.079991 0.072241 -0.000511
X3 C -0.039806 0.165411 -0.005033
X4 C -0.03752 -0.023536 0.003103
X5 C -0.273556 0.061097 -0.001171
X6 C 0.196306 0.080675 -0.00038
O7 O -0.237657 0.112207 -0.003289
O8 O -0.2248 0.013305 0.001035
O9 O -0.104493 0.144557 -0.004359
O10 O 0.00835 0.12813 -0.003223
O11 O -0.085648 0.013795 0.001365
O12 O 0.02719 -0.002738 0.002482
O13 O 0.14758 0.128508 -0.002641
O14 O 0.160363 0.029585 0.001666
N15 N -0.15711 0.072741 0.078407
N16 N -0.156732 0.065805 -0.080842
N17 N 0.079298 0.076003 0.079099
N18 N 0.079986 0.069161 -0.080152
loop_
_geom_bond_atom_site_label_1
_geom_bond_atom_site_label_2
_geom_bond_distance
_geom_bond_site_symmetry_2
_ccdc_geom_bond_type
Co1 N15 1.5940197949141033 . T
Co1 N16 1.5940372729629004 . T
Co2 N17 1.5940302876501438 . T
Co2 N18 1.5940206578965657 . T
X3 O9 1.3593630746272314 . S
X3 O10 1.2185569413818953 . D
X4 O11 1.2186760649766615 . D
X4 O12 1.3594515646263385 . S
X5 O7 1.2498686169069926 . D
X5 O8 1.3661864174683478 . S
X6 O13 1.3663450757125741 . S
X6 O14 1.2499995534839206 . D
O7 Co1 1.8200276731429115 . S
O8 Co1 1.7590163824313862 . S
O9 Co1 1.834426726188048 . S
O10 Co2 1.8180649896549352 . S
O11 Co1 1.816729963215227 . S
O12 Co2 1.8350817005218052 . S
O13 Co2 1.7594015158027458 . S
O14 Co2 1.8203149966472836 . S
