data_4c_Cu_3hex
_audit_creation_date              2020-10-22
_audit_creation_method            'adam'
_symmetry_space_group_name_H-M    'P1'
_symmetry_Int_Tables_number       1
_symmetry_cell_setting            triclinic
loop_
_symmetry_equiv_pos_as_xyz
  x,y,z
_cell_length_a                    20
_cell_length_b                    20
_cell_length_c                    20
_cell_angle_alpha                 90
_cell_angle_beta                  90
_cell_angle_gamma                 90
loop_
_atom_site_label
_atom_site_type_symbol
_atom_site_fract_x
_atom_site_fract_y
_atom_site_fract_z
Cu1 Cu -0.089622 -0.006761 -0.100037
Cu2 Cu 0.033511 -0.011375 -0.030298
Cu3 Cu -0.100288 -0.112779 0.024415
Cu4 Cu 0.008498 -0.14585 -0.056544
O5 O -0.053972 0.081353 -0.104919
O6 O 0.034028 0.081197 -0.033602
O7 O -0.182043 -0.011433 -0.082402
O8 O -0.187426 -0.080163 0.009279
O9 O 0.121399 -0.043839 -0.038979
O10 O 0.101528 -0.151913 -0.06493
O11 O -0.09398 -0.206172 0.039224
O12 O -0.026067 -0.231514 -0.04723
X13 C -0.214113 -0.040574 -0.038897
X14 C -0.004988 0.111871 -0.069266
X15 C 0.141052 -0.106165 -0.056009
X16 C -0.063286 -0.247973 0.006525
C17 C -0.048791 -0.021546 0.030572
C18 C -0.004004 -0.075777 0.045288
C19 C -0.065206 0.029942 0.085305
C20 C 0.034206 -0.077622 0.111711
C21 C 0.063825 -0.146892 0.122532
H22 H 0.001456 -0.0665 0.154856
H23 H 0.075274 -0.040257 0.109974
C24 C -0.120246 0.006386 0.132724
H25 H -0.019583 0.043993 0.113618
H26 H -0.083311 0.075966 0.060094
H27 H 0.023284 -0.18476 0.125466
H28 H 0.09229 -0.147725 0.170201
H29 H -0.167283 -0.002495 0.10491
H30 H -0.106186 -0.04018 0.159196
C31 C -0.069579 -0.106834 -0.1141
C32 C -0.009126 -0.071393 -0.128835
C33 C 0.017037 -0.070939 -0.201091
C34 C -0.013878 -0.014104 -0.241467
H35 H 0.009135 -0.119439 -0.22674
H36 H 0.071906 -0.062771 -0.198982
H37 H -0.068934 -0.019801 -0.244965
H38 H 0.007257 -0.014182 -0.292801
C39 C -0.102036 -0.151726 -0.167272
C40 C -0.167061 -0.181833 -0.141605
H41 H -0.067338 -0.193235 -0.17987
H42 H -0.11337 -0.122604 -0.213087
H43 H -0.188768 -0.214923 -0.180547
H44 H -0.203801 -0.141923 -0.130361
H45 H 0.098206 -0.160133 0.08101
H46 H -0.158031 -0.211898 -0.095881
H47 H -0.002248 0.034741 -0.217841
H48 H -0.129994 0.045862 0.170515
loop_
_geom_bond_atom_site_label_1
_geom_bond_atom_site_label_2
_geom_bond_distance
_geom_bond_site_symmetry_2
_ccdc_geom_bond_type
O5 Cu1 1.9035674197017556 . S
O6 Cu2 1.8526457184148835 . S
O7 Cu1 1.8840743324163196 . S
O8 Cu3 1.8852998345509924 . S
O9 Cu2 1.8818487675373918 . S
O10 Cu4 1.8720761723888266 . S
O11 Cu3 1.895408178222833 . S
O12 Cu4 1.8568505110541345 . S
X13 O7 1.2280659281101318 . D
X13 O8 1.3565259216649712 . S
X14 O5 1.3567423445525684 . S
X14 O6 1.2223019926290721 . D
X15 O9 1.3506773073339908 . S
X15 O10 1.2222311955096714 . D
X16 O11 1.226144598864669 . D
X16 O12 1.3484357907060314 . S
C17 Cu2 2.057396518600632 . S
C17 Cu3 2.098889475508894 . S
C17 C19 1.5383316878183326 . S
C18 Cu2 2.1230275390276967 . S
C18 Cu3 2.1047909564747758 . S
C18 C17 1.4371448035706074 . S
C18 C20 1.5330346771665015 . S
C19 C24 1.5274675047404445 . S
C19 H25 1.1100407970241455 . S
C19 H26 1.1102487903816873 . S
C20 C21 1.522190003265361 . S
C20 H22 1.1059540223237128 . S
C20 H23 1.1109878594930729 . S
C21 H27 1.1110640967891996 . S
C21 H28 1.1105481701812852 . S
C21 H45 1.110205303098035 . S
C24 H29 1.1072531874304992 . S
C24 H30 1.1075692020894226 . S
C24 H48 1.1102330216585163 . S
C31 Cu1 2.060496592295168 . S
C31 Cu4 2.0910198881698854 . S
C31 C32 1.4321639572444211 . S
C31 C39 1.5357199803512356 . S
C32 Cu1 2.143477771180751 . S
C32 Cu4 2.1052679036535946 . S
C32 C33 1.536964567605252 . S
C33 C34 1.5252723401025796 . S
C33 H35 1.1086189141927898 . S
C33 H36 1.1102698783115752 . S
C34 H37 1.1092003192485116 . S
C34 H38 1.1102825955733078 . S
C34 H47 1.1098288098607818 . S
C39 C40 1.5222931836945868 . S
C39 H41 1.110963717430052 . S
C39 H42 1.1091473643127856 . S
C40 H43 1.1104192436143205 . S
C40 H44 1.1079833682925928 . S
C40 H46 1.1092685859033418 . S
