data_4c_Cu_N_pw
_audit_creation_date              2020-10-22
_audit_creation_method            'adam'
_symmetry_space_group_name_H-M    'P1'
_symmetry_Int_Tables_number       1
_symmetry_cell_setting            triclinic
loop_
_symmetry_equiv_pos_as_xyz
  x,y,z
_cell_length_a                    20
_cell_length_b                    20
_cell_length_c                    20
_cell_angle_alpha                 90
_cell_angle_beta                  90
_cell_angle_gamma                 90
loop_
_atom_site_label
_atom_site_type_symbol
_atom_site_fract_x
_atom_site_fract_y
_atom_site_fract_z
Cu1 Cu -0.125756 0.072966 -0.005687
Cu2 Cu -0.111764 -0.035204 0.003399
O3 O -0.217244 0.062982 -0.006145
O4 O -0.202512 -0.047668 0.001162
O5 O -0.030333 0.085314 -0.001925
O6 O -0.017209 -0.022257 0.005809
X7 C -0.241555 0.006596 -0.003687
X8 C 0.008714 0.038671 0.002071
O9 O -0.1075 0.068662 -0.096468
O10 O -0.093816 -0.041672 -0.088791
O11 O -0.11302 0.081892 0.087629
O12 O -0.100465 -0.028409 0.096812
X13 C -0.109234 0.025495 0.124612
X14 C -0.100731 0.007643 -0.124452
N15 N -0.100276 -0.131449 0.010823
N16 N -0.138452 0.169609 -0.012034
loop_
_geom_bond_atom_site_label_1
_geom_bond_atom_site_label_2
_geom_bond_distance
_geom_bond_site_symmetry_2
_ccdc_geom_bond_type
Cu1 O3 1.8406428765260248 . S
Cu1 O5 1.9258489003226604 . S
Cu1 N16 1.953612386748968 . S
Cu2 O4 1.8325395506337645 . S
Cu2 O6 1.909358539298997 . S
Cu2 N15 1.9442394216569623 . S
X7 O3 1.2290724900273378 . D
X7 O4 1.340518461368213 . S
X8 O5 1.2192163539725016 . D
X8 O6 1.3263671255629037 . S
O9 Cu1 1.8539637900045407 . S
O10 Cu2 1.882873980966331 . S
O10 X14 1.2249862087215513 . D
O11 Cu1 1.8920617684473202 . S
O12 Cu2 1.886775143044343 . S
X13 O11 1.3509574600926557 . S
X13 O12 1.2256296161948763 . D
X14 O9 1.3494179096892112 . S
