data_4c_Cr_O_pw
_audit_creation_date              2020-10-22
_audit_creation_method            'adam'
_symmetry_space_group_name_H-M    'P1'
_symmetry_Int_Tables_number       1
_symmetry_cell_setting            triclinic
loop_
_symmetry_equiv_pos_as_xyz
  x,y,z
_cell_length_a                    20
_cell_length_b                    20
_cell_length_c                    20
_cell_angle_alpha                 90
_cell_angle_beta                  90
_cell_angle_gamma                 90
loop_
_atom_site_label
_atom_site_type_symbol
_atom_site_fract_x
_atom_site_fract_y
_atom_site_fract_z
Cr1 Cr -0.116113 -0.047132 -0.001963
O2 O -0.208442 0.052891 -0.002064
O3 O -0.207653 -0.057103 -0.004967
O4 O -0.02108 0.073408 0.002213
O5 O -0.021573 -0.035607 0.001192
X6 C -0.240138 0.000885 -0.004192
X7 C 0.011252 0.022736 0.002454
O8 O -0.098952 0.086031 -0.087488
O9 O -0.102323 -0.026809 -0.095378
O10 O -0.102792 0.083643 0.088759
O11 O -0.108192 -0.029352 0.092826
X12 C -0.105212 0.025018 0.122528
X13 C -0.098428 0.028467 -0.123131
Cr14 Cr -0.113611 0.064704 0.00012
O15 O -0.132799 0.158016 0.001035
O16 O -0.124635 -0.141974 -0.004095
loop_
_geom_bond_atom_site_label_1
_geom_bond_atom_site_label_2
_geom_bond_distance
_geom_bond_site_symmetry_2
_ccdc_geom_bond_type
Cr1 O3 1.8425989471860118 . S
Cr1 O5 1.9058537250838534 . S
Cr1 O16 1.9049497489353886 . S
X6 O2 1.2188109820525903 . D
X6 O3 1.3294414971118511 . S
X7 O4 1.202174619664714 . D
X7 O5 1.339099480578273 . S
O9 Cr1 1.931803176522132 . S
O9 X13 1.2394887111055106 . D
O11 Cr1 1.935329216758224 . S
X12 O10 1.3539761863640734 . S
X12 O11 1.240519753057564 . D
X13 O8 1.35415727898387 . S
Cr14 O2 1.9117925316670743 . S
Cr14 O4 1.8592528116490774 . S
Cr14 O8 1.8270038375816293 . S
Cr14 O10 1.8256537130849868 . S
Cr14 O15 1.9053807502895581 . S
