data_4c_Co_N_pw
_audit_creation_date              2020-10-22
_audit_creation_method            'adam'
_symmetry_space_group_name_H-M    'P1'
_symmetry_Int_Tables_number       1
_symmetry_cell_setting            triclinic
loop_
_symmetry_equiv_pos_as_xyz
  x,y,z
_cell_length_a                    20
_cell_length_b                    20
_cell_length_c                    20
_cell_angle_alpha                 90
_cell_angle_beta                  90
_cell_angle_gamma                 90
loop_
_atom_site_label
_atom_site_type_symbol
_atom_site_fract_x
_atom_site_fract_y
_atom_site_fract_z
Co1 Co -0.000542 0.001073 0.116286
Co2 Co 0.000991 -0.000567 -0.001844
O3 O -0.090786 -0.00694 0.105463
O4 O -0.089013 -0.008442 -0.004947
O5 O 0.08914 0.008888 0.117234
O6 O 0.091861 0.007468 0.00691
X7 C -0.12169 -0.010519 0.04605
X8 C 0.122391 0.010913 0.059512
O9 O -0.027997 0.08745 0.111408
O10 O 0.011997 0.089184 0.006465
O11 O -0.012661 -0.088853 0.114055
O12 O 0.027302 -0.086784 0.009106
X13 C 0.005163 -0.119827 0.064088
X14 C -0.015657 0.119533 0.060495
N15 N -0.013843 -0.003272 -0.096103
N16 N 0.017959 0.004087 0.209882
loop_
_geom_bond_atom_site_label_1
_geom_bond_atom_site_label_2
_geom_bond_distance
_geom_bond_site_symmetry_2
_ccdc_geom_bond_type
Co1 O3 1.8248643822487194 . S
Co1 O5 1.8005370368864952 . S
Co1 N16 1.9090921835259813 . S
Co2 O4 1.8080225938853751 . S
Co2 O6 1.8328721331287678 . S
Co2 O12 1.8160993706292614 . S
Co2 N15 1.9091488849222837 . S
O4 X7 1.2120716591027119 . D
X7 O3 1.3413084695177317 . S
X8 O5 1.3329004328906195 . S
X8 O6 1.2183463102090473 . D
O9 Co1 1.8153300568216242 . S
O10 Co2 1.8160851872090138 . S
O11 Co1 1.8153272980925506 . S
X13 O11 1.2286227640736596 . D
X13 O12 1.3572023421730455 . S
X14 O9 1.2286135369594458 . D
X14 O10 1.357209846265492 . S
