data_4c_Co_qu
_audit_creation_date              2020-10-22
_audit_creation_method            'adam'
_symmetry_space_group_name_H-M    'P1'
_symmetry_Int_Tables_number       1
_symmetry_cell_setting            triclinic
loop_
_symmetry_equiv_pos_as_xyz
  x,y,z
_cell_length_a                    20
_cell_length_b                    20
_cell_length_c                    20
_cell_angle_alpha                 90
_cell_angle_beta                  90
_cell_angle_gamma                 90
loop_
_atom_site_label
_atom_site_type_symbol
_atom_site_fract_x
_atom_site_fract_y
_atom_site_fract_z
Co1 Co 0.036905 0.035577 0.02678
Co2 Co -0.090331 0.064775 -0.030454
O3 O -0.067486 0.150861 -0.010439
O4 O 0.036507 0.127466 0.040118
X5 C -0.00782 0.167516 0.020757
Co6 Co -0.057952 -0.065983 0.04229
Co7 Co -0.018952 -0.037323 -0.090445
O8 O -0.051017 -0.151066 0.012667
O9 O -0.040286 -0.124909 -0.102001
X10 C -0.050213 -0.165511 -0.055292
O11 O 0.058705 0.016662 0.11155
O12 O -0.007539 -0.078654 0.119483
X13 C 0.035499 -0.039577 0.142688
O14 O -0.109875 0.087646 -0.115972
O15 O -0.064593 -0.007044 -0.163547
X16 C -0.096873 0.053413 -0.165607
O17 O -0.060462 0.024675 0.050313
O18 O -0.095102 -0.027716 -0.037036
O19 O 0.001425 0.044055 -0.059497
O20 O 0.02178 -0.050495 -0.005763
C21 C -0.29983 0.119257 0.003022
C22 C -0.325556 0.054954 0.005456
C23 C -0.282217 0.00071 -0.005544
C24 C -0.212443 0.011052 -0.019178
C25 C -0.229971 0.12813 -0.006106
C26 C -0.306519 -0.063659 7.2e-05
C27 C -0.262989 -0.116791 -0.010035
C28 C -0.165523 -0.042689 -0.033719
C29 C -0.194956 -0.107151 -0.028419
N30 N -0.187331 0.073301 -0.01387
H31 H -0.212427 0.179282 -0.006778
H32 H -0.334621 0.161015 0.009577
H33 H -0.378997 0.047836 0.015505
H34 H -0.358351 -0.072505 0.015025
H35 H -0.282506 -0.166389 -0.000856
H36 H -0.166243 -0.151518 -0.031186
H37 H 0.31537 -0.052771 -0.068177
C38 C 0.26768 -0.032161 -0.048542
H39 H 0.313209 0.056948 -0.02237
H40 H 0.261322 -0.151689 -0.097203
C41 C 0.264714 0.03105 -0.022461
C42 C 0.214429 -0.13251 -0.075414
C43 C 0.209261 -0.06915 -0.048184
C44 C 0.158748 -0.171789 -0.075741
C45 C 0.201776 0.058297 0.00139
H46 H 0.164287 -0.220605 -0.099097
C47 C 0.145538 -0.042567 -0.022202
H48 H 0.207509 0.108436 0.020074
N49 N 0.140154 0.022494 -0.000247
X5 C 0.097046 -0.149208 -0.04897
X5 C 0.085368 -0.082891 -0.021454
H52 H 0.061558 -0.186882 -0.056384
X5 C 0.19142 0.07045 -0.185086
H54 H 0.238126 0.072868 -0.215039
X5 C 0.170933 -0.036215 -0.231991
H56 H 0.21534 -0.032567 -0.264481
X5 C 0.172208 0.12117 -0.142259
X5 C 0.151328 0.015105 -0.187905
H59 H 0.209193 0.161572 -0.141115
C60 C 0.131546 -0.092514 -0.236267
C61 C 0.110304 0.118954 -0.102585
H62 H 0.145305 -0.130495 -0.273006
C63 C 0.091186 0.009385 -0.146583
H64 H 0.106688 0.162226 -0.071087
C65 C 0.075376 -0.098682 -0.193776
C66 C 0.062391 0.061835 -0.102394
N67 N 0.058728 -0.049405 -0.147795
H68 H 0.045418 -0.142759 -0.200027
C69 C -0.127199 0.029248 0.096847
C70 C -0.174128 0.083846 0.121223
H71 H -0.165522 0.135926 0.112496
C72 C -0.243047 0.074561 0.153675
N73 N -0.141951 -0.091912 0.094127
C74 C -0.168493 -0.034378 0.114555
C75 C -0.170495 -0.15431 0.1143
H76 H -0.280211 0.113314 0.168384
C77 C -0.235475 -0.040847 0.150067
C78 C -0.272604 0.013756 0.168032
H79 H -0.14908 -0.202524 0.103254
C80 C -0.232585 -0.160165 0.14973
C81 C -0.266268 -0.103117 0.165932
H82 H -0.32424 0.008606 0.191073
H83 H -0.257084 -0.207585 0.164602
H84 H -0.315648 -0.108247 0.191642
loop_
_geom_bond_atom_site_label_1
_geom_bond_atom_site_label_2
_geom_bond_distance
_geom_bond_site_symmetry_2
_ccdc_geom_bond_type
Co1 O17 2.015241003727842 . S
Co1 O19 1.8734319009438265 . S
Co2 O17 1.8998488231375148 . S
Co2 O19 1.9689547322884293 . S
O3 Co2 1.8257425532122542 . S
O4 Co1 1.8570664931329193 . S
X5 O3 1.3871607240002868 . S
X5 O4 1.2559935309789618 . D
Co6 O17 1.820942535968118 . S
Co7 O18 1.870147693050204 . S
Co7 O19 1.788346632836599 . S
O8 Co6 1.8071802437020499 . S
O8 X10 1.3896229060151533 . S
O9 Co7 1.8176811752576412 . S
O9 X10 1.2536121491613743 . D
O11 Co1 1.790982801961538 . S
O12 Co6 1.8612584022558498 . S
X13 O11 1.3668675699152424 . S
X13 O12 1.2518454517359563 . D
O14 Co2 1.8130952503635875 . S
O15 Co7 1.8268841430988445 . S
X16 O14 1.2336243447391106 . D
X16 O15 1.3713274627123164 . S
O18 Co2 1.8569554928064378 . S
O18 Co6 1.9117590378028817 . S
O20 Co1 1.8650569312927152 . S
O20 Co6 1.8874601005131206 . S
O20 Co7 1.897749478871487 . S
C21 C22 1.386025336262653 . D
C21 C25 1.4201737548120656 . S
C21 H32 1.0949215007688902 . S
C22 C23 1.4059385086588958 . S
C22 H33 1.096835405481606 . S
C23 C24 1.4368407810905846 . D
C23 C26 1.3806476132442338 . S
C24 C28 1.4561623388211218 . S
C24 N30 1.3466485674317556 . S
C25 N30 1.3978063150250826 . D
C25 H31 1.0816212239619747 . S
C26 C27 1.3885239591641911 . D
C26 H34 1.0933262517885505 . S
C27 C29 1.422602886116853 . S
C27 H35 1.0816778098389555 . S
C28 O18 1.441446715140036 . S
C29 C28 1.4212257672157511 . D
C29 H36 1.0583967936813676 . S
N30 Co2 1.9755241500778977 . S
C38 H37 1.1107831344731518 . S
C38 C43 1.3829187376057208 . S
C41 C38 1.3688989251223043 . D
C41 H39 1.0995295531953657 . S
C41 C45 1.4522314448688955 . S
C42 H40 1.103001619716399 . S
C42 C44 1.362838876779643 . D
C43 C42 1.3831323560357487 . S
C43 C47 1.475432874391783 . D
C44 H46 1.0879818454648036 . S
C44 X5 1.4189608420773987 . S
C45 H48 1.0762770040565763 . S
C45 N49 1.4257365770506134 . D
C47 N49 1.377511871068268 . S
C47 X5 1.4487377680826163 . S
N49 Co1 2.1505345376647638 . S
X5 X5 1.4548561242140061 . D
X5 H52 1.0456840879663418 . S
X5 O20 1.4613902493512814 . S
X5 H54 1.1107736442322529 . S
X5 X5 1.3821337704871406 . D
X5 H56 1.102891362454616 . S
X5 X5 1.4087678517591182 . S
X5 H59 1.0957208591014411 . S
X5 C61 1.4712010107218523 . S
X5 X5 1.367982181661004 . S
X5 C63 1.4638609537360436 . D
C60 X5 1.3768487148561384 . D
C60 H62 1.0920733835585408 . S
C60 C65 1.4140038044892245 . S
C61 H64 1.0728732905781555 . S
C61 C66 1.4910707554549516 . D
C63 C66 1.4876566924213395 . S
C63 N67 1.3433235060330777 . S
C65 N67 1.3884774960268529 . D
C65 H68 1.0731987859613894 . S
C66 O19 1.5327337643051384 . S
N67 Co7 1.9461798945888842 . S
C69 O17 1.629755165007002 . S
C70 C69 1.5201736459947597 . D
C70 H71 1.0700687644922642 . S
C72 C70 1.5348256576087067 . S
C72 H76 1.113433815281807 . S
N73 Co6 2.0410931932591905 . S
C74 C69 1.5578223765782797 . S
C74 N73 1.3314632724915845 . S
C75 N73 1.4304115742152679 . D
C75 H79 1.0780059303027971 . S
C77 C74 1.5217653209631241 . D
C77 C78 1.3686131051210202 . S
C78 C72 1.3823159990508684 . D
C78 H82 1.1355471720514294 . S
C80 C75 1.4345465409842928 . S
C80 C81 1.3640299871725694 . D
C80 H83 1.10816501912892 . S
C81 C77 1.4251450806949444 . S
C81 H84 1.118155366507267 . S
