data_4c_In_pw
_audit_creation_date              2020-10-22
_audit_creation_method            'adam'
_symmetry_space_group_name_H-M    'P1'
_symmetry_Int_Tables_number       1
_symmetry_cell_setting            triclinic
loop_
_symmetry_equiv_pos_as_xyz
  x,y,z
_cell_length_a                    20
_cell_length_b                    20
_cell_length_c                    20
_cell_angle_alpha                 90
_cell_angle_beta                  90
_cell_angle_gamma                 90
loop_
_atom_site_label
_atom_site_type_symbol
_atom_site_fract_x
_atom_site_fract_y
_atom_site_fract_z
In1 In -0.117701 0.096899 -0.004192
In2 In -0.082952 -0.057551 -0.006957
O3 O -0.210099 0.058509 -0.012918
O4 O -0.183714 -0.055452 -0.015071
O5 O -0.017425 0.102316 0.00399
O6 O 0.007164 -0.011111 0.00197
X7 C -0.226259 -0.001334 -0.016432
X8 C 0.023178 0.055559 0.005587
O9 O -0.080855 0.082132 -0.097179
O10 O -0.055407 -0.031071 -0.100043
O11 O -0.09606 0.075608 0.092162
O12 O -0.070882 -0.037665 0.091029
X13 C -0.078428 0.015978 0.120961
X14 C -0.058446 0.024597 -0.12693
X15 C -0.084501 -0.168563 -0.011838
X16 C -0.168188 0.194283 -0.003933
Si17 Si -0.169494 -0.207689 -0.013828
Si18 Si -0.037558 -0.202725 0.06126
Si19 Si -0.19154 0.218303 -0.091081
Si20 Si -0.110404 0.258458 0.031422
H21 H -0.057558 -0.183247 -0.05804
H22 H -0.213883 0.191618 0.027402
loop_
_geom_bond_atom_site_label_1
_geom_bond_atom_site_label_2
_geom_bond_distance
_geom_bond_site_symmetry_2
_ccdc_geom_bond_type
In1 O3 2.0087278111819926 . S
In1 O5 2.0150999809570243 . S
In1 X16 2.1938643428491655 . S
In2 O4 2.022202959803244 . S
In2 O6 2.0354137484749875 . S
In2 X15 2.222599871656165 . S
X7 O3 1.2417242212093633 . D
X7 O4 1.3770487873928068 . S
X8 O5 1.2389342510476495 . D
X8 O6 1.3732195988457199 . S
O9 In1 2.0220973075245414 . S
O10 In2 2.012453451529749 . S
O10 X14 1.2379047252010147 . D
O11 In1 2.020477867551387 . S
O12 In2 2.0142047006213146 . S
X13 O11 1.3705497249392302 . S
X13 O12 1.2378015982805968 . D
X14 O9 1.3707696915032808 . S
X15 Si17 1.8717553029148868 . S
X15 Si18 1.866968182316185 . S
X15 H21 1.1092713250805684 . S
X16 Si19 1.8673037861842408 . S
X16 Si20 1.8662898399214414 . S
X16 H22 1.1094070259354771 . S
