data_4c_Mo_pw
_audit_creation_date              2020-10-22
_audit_creation_method            'adam'
_symmetry_space_group_name_H-M    'P1'
_symmetry_Int_Tables_number       1
_symmetry_cell_setting            triclinic
loop_
_symmetry_equiv_pos_as_xyz
  x,y,z
_cell_length_a                    20
_cell_length_b                    20
_cell_length_c                    20
_cell_angle_alpha                 90
_cell_angle_beta                  90
_cell_angle_gamma                 90
loop_
_atom_site_label
_atom_site_type_symbol
_atom_site_fract_x
_atom_site_fract_y
_atom_site_fract_z
Mo1 Mo -0.118699 0.074024 -0.001206
Mo2 Mo -0.104793 -0.038275 0.001481
O3 O -0.217972 0.063068 -0.003618
O4 O -0.204111 -0.047512 -0.001026
O5 O -0.019286 0.08557 0.001197
O6 O -0.006137 -0.02511 0.003889
X7 C -0.243069 0.007428 -0.003168
X8 C 0.018438 0.037537 0.003222
O9 O -0.115826 0.07007 -0.100747
O10 O -0.102048 -0.04055 -0.098472
O11 O -0.12111 0.074181 0.098425
O12 O -0.107482 -0.036439 0.101445
X13 C -0.114737 0.016051 0.131826
X14 C -0.107653 0.010632 -0.131334
loop_
_geom_bond_atom_site_label_1
_geom_bond_atom_site_label_2
_geom_bond_distance
_geom_bond_site_symmetry_2
_ccdc_geom_bond_type
Mo1 O3 1.9981124289241081 . S
Mo1 O5 2.0021949143122906 . S
Mo2 O4 1.9955706787523209 . S
Mo2 O6 1.9911973687793987 . S
X7 O3 1.220798986209032 . D
X7 O4 1.347689074317589 . S
X8 O5 1.2221812158018959 . D
X8 O6 1.345971346852525 . S
O9 Mo1 1.9932092905806456 . S
O10 Mo2 2.0003373016958914 . S
O10 X14 1.221612156692131 . D
O11 Mo1 1.9932090350560325 . S
O12 Mo2 2.000335451926751 . S
X13 O11 1.3468943404788662 . S
X13 O12 1.2216108645084163 . D
X14 O9 1.3468919367662722 . S
