data_4c_Ni_h2o_pw
_audit_creation_date              2020-10-22
_audit_creation_method            'adam'
_symmetry_space_group_name_H-M    'P1'
_symmetry_Int_Tables_number       1
_symmetry_cell_setting            triclinic
loop_
_symmetry_equiv_pos_as_xyz
  x,y,z
_cell_length_a                    20
_cell_length_b                    20
_cell_length_c                    20
_cell_angle_alpha                 90
_cell_angle_beta                  90
_cell_angle_gamma                 90
loop_
_atom_site_label
_atom_site_type_symbol
_atom_site_fract_x
_atom_site_fract_y
_atom_site_fract_z
Ni1 Ni -0.114015 0.062612 0.014655
Ni2 Ni -0.091436 -0.053312 0.00641
O3 O -0.199973 0.048665 0.017274
O4 O -0.179493 -0.059635 0.006294
O5 O -0.026016 0.074465 0.013078
O6 O -0.005427 -0.033035 0.005749
X7 C -0.221614 -0.007813 0.012848
X8 C 0.015473 0.030316 0.00862
O9 O -0.10277 0.054033 -0.073754
O10 O -0.069527 -0.053441 -0.07757
O11 O -0.093118 0.044518 0.099847
O12 O -0.060539 -0.062537 0.087255
X13 C -0.066844 -0.013743 0.123938
X14 C -0.078722 -0.000509 -0.107017
O15 O -0.145427 0.145464 0.023297
O16 O -0.099876 -0.142446 0.004445
H17 H -0.160179 0.159935 -0.021771
H18 H -0.106445 0.173746 0.03479
H19 H -0.055403 -0.162993 -0.002975
H20 H -0.133179 -0.158468 -0.028693
loop_
_geom_bond_atom_site_label_1
_geom_bond_atom_site_label_2
_geom_bond_distance
_geom_bond_site_symmetry_2
_ccdc_geom_bond_type
Ni1 O3 1.7424285794955845 . S
Ni1 O5 1.7761698350222592 . S
Ni1 O15 1.7805425278186982 . S
Ni2 O4 1.765667065110804 . S
Ni2 O6 1.7674033394505624 . S
Ni2 O16 1.7910793161892633 . S
X7 O3 1.212874982366278 . D
X7 O4 1.3420432526271273 . S
X8 O5 1.214950112761425 . D
X8 O6 1.3354138363380095 . S
O9 Ni1 1.790683376431188 . S
O10 Ni2 1.7358103608703919 . S
O10 X14 1.22532166497006 . D
O11 Ni1 1.791269658608106 . S
O12 Ni2 1.7407686595076326 . S
X13 O11 1.366035744613954 . S
X13 O12 1.227397788368954 . D
X14 O9 1.3652112428759882 . S
O15 H17 0.9915966338073158 . S
O15 H18 0.9902722192377205 . S
O16 H19 0.9909835133850615 . S
O16 H20 0.9927550887248073 . S
