data_4c_Ni_N_pw
_audit_creation_date              2020-10-22
_audit_creation_method            'adam'
_symmetry_space_group_name_H-M    'P1'
_symmetry_Int_Tables_number       1
_symmetry_cell_setting            triclinic
loop_
_symmetry_equiv_pos_as_xyz
  x,y,z
_cell_length_a                    20
_cell_length_b                    20
_cell_length_c                    20
_cell_angle_alpha                 90
_cell_angle_beta                  90
_cell_angle_gamma                 90
loop_
_atom_site_label
_atom_site_type_symbol
_atom_site_fract_x
_atom_site_fract_y
_atom_site_fract_z
Ni1 Ni -0.126647 0.077895 0.00069
Ni2 Ni -0.106981 -0.038347 -0.000501
O3 O -0.21287 0.066253 -0.001332
O4 O -0.194825 -0.042976 -0.002553
O5 O -0.038549 0.087634 0.002731
O6 O -0.020632 -0.020498 0.001698
X7 C -0.235818 0.010136 -0.002656
X8 C 0.001823 0.042281 0.00302
O9 O -0.109134 0.065703 -0.086188
O10 O -0.081441 -0.043482 -0.083251
O11 O -0.112896 0.063319 0.087874
O12 O -0.085203 -0.045808 0.083144
X13 C -0.091588 0.005149 0.11664
X14 C -0.086437 0.008376 -0.115577
N15 N -0.156768 0.164952 0.00123
N16 N -0.121667 -0.129281 -0.002104
loop_
_geom_bond_atom_site_label_1
_geom_bond_atom_site_label_2
_geom_bond_distance
_geom_bond_site_symmetry_2
_ccdc_geom_bond_type
Ni1 O3 1.7405637991955367 . S
Ni1 O5 1.773167870423159 . S
Ni1 N15 1.8424278015667264 . S
Ni2 O4 1.759804292780876 . S
Ni2 O6 1.764028653969374 . S
Ni2 N16 1.842515023881488 . S
X7 O3 1.2128451047334938 . D
X7 O4 1.3418334513094385 . S
X8 O5 1.2143972218796453 . D
X8 O6 1.3337478523888988 . S
O9 Ni1 1.7892135986899385 . S
O10 Ni2 1.7350762185523725 . S
O10 X14 1.226235021133388 . D
O11 Ni1 1.7891445296504136 . S
O12 Ni2 1.7351024771609314 . S
X13 O11 1.3660633815877654 . S
X13 O12 1.2262622471257933 . D
X14 O9 1.3660537292632382 . S
