data_4c_Ni_N
_audit_creation_date              2020-10-22
_audit_creation_method            'adam'
_symmetry_space_group_name_H-M    'P1'
_symmetry_Int_Tables_number       1
_symmetry_cell_setting            triclinic
loop_
_symmetry_equiv_pos_as_xyz
  x,y,z
_cell_length_a                    20
_cell_length_b                    20
_cell_length_c                    20
_cell_angle_alpha                 90
_cell_angle_beta                  90
_cell_angle_gamma                 90
loop_
_atom_site_label
_atom_site_type_symbol
_atom_site_fract_x
_atom_site_fract_y
_atom_site_fract_z
Ni1 Ni -0.157269 0.069606 -0.001232
Ni2 Ni 0.079991 0.072241 -0.000511
X3 C -0.039806 0.165411 -0.005033
X4 C -0.03752 -0.023536 0.003103
X5 C -0.273556 0.061097 -0.001171
X6 C 0.196306 0.080675 -0.00038
O7 O -0.237657 0.112207 -0.003289
O8 O -0.2248 0.013305 0.001035
O9 O -0.104493 0.144557 -0.004359
O10 O 0.00835 0.12813 -0.003223
O11 O -0.085648 0.013795 0.001364
O12 O 0.02719 -0.002738 0.002482
O13 O 0.14758 0.128508 -0.002641
O14 O 0.160363 0.029585 0.001666
N15 N -0.15711 0.072741 0.078406
N16 N -0.156732 0.065805 -0.080842
N17 N 0.079298 0.076003 0.079099
N18 N 0.079986 0.069161 -0.080152
loop_
_geom_bond_atom_site_label_1
_geom_bond_atom_site_label_2
_geom_bond_distance
_geom_bond_site_symmetry_2
_ccdc_geom_bond_type
Ni1 N15 1.594013762232309 . T
Ni1 N16 1.5940332843507379 . T
Ni2 N17 1.5940313337014425 . T
Ni2 N18 1.594018659390473 . T
X3 O9 1.3593665632378191 . S
X3 O10 1.218557701845916 . D
X4 O11 1.2186796252489822 . D
X4 O12 1.3594509709676919 . S
X5 O7 1.2498709146951934 . D
X5 O8 1.3661878732044872 . S
X6 O13 1.3663443755616664 . S
X6 O14 1.2499997958479832 . D
O7 Ni1 1.8200223426304412 . S
O8 Ni1 1.7590125175467055 . S
O9 Ni1 1.8344231579951775 . S
O10 Ni2 1.818064870317063 . S
O11 Ni1 1.8167272171567204 . S
O12 Ni2 1.8350817331337044 . S
O13 Ni2 1.7594013628839782 . S
O14 Ni2 1.82031455189838 . S
