data_4c_Ni_qu
_audit_creation_date              2020-10-22
_audit_creation_method            'adam'
_symmetry_space_group_name_H-M    'P1'
_symmetry_Int_Tables_number       1
_symmetry_cell_setting            triclinic
loop_
_symmetry_equiv_pos_as_xyz
  x,y,z
_cell_length_a                    20
_cell_length_b                    20
_cell_length_c                    20
_cell_angle_alpha                 90
_cell_angle_beta                  90
_cell_angle_gamma                 90
loop_
_atom_site_label
_atom_site_type_symbol
_atom_site_fract_x
_atom_site_fract_y
_atom_site_fract_z
Ni1 Ni 0.032653 0.030206 0.025179
Ni2 Ni -0.086896 0.059811 -0.031195
O3 O -0.066166 0.142262 -0.011422
O4 O 0.032916 0.116203 0.045168
X5 C -0.010369 0.15712 0.026348
Ni6 Ni -0.056844 -0.066583 0.038286
Ni7 Ni -0.022091 -0.040041 -0.08889
O8 O -0.053597 -0.148711 0.010207
O9 O -0.044402 -0.123148 -0.103074
X10 C -0.055182 -0.163599 -0.057201
O11 O 0.053912 0.008849 0.106629
O12 O -0.010656 -0.086139 0.110258
X13 C 0.032303 -0.049127 0.1351
O14 O -0.107405 0.082203 -0.113103
O15 O -0.065286 -0.013116 -0.15969
X16 C -0.096409 0.047273 -0.162505
O17 O -0.057202 0.02146 0.046862
O18 O -0.093144 -0.02947 -0.037666
O19 O -0.001839 0.039879 -0.058078
O20 O 0.017342 -0.052489 -0.007104
C21 C -0.291011 0.117531 0.003138
C22 C -0.318735 0.053948 0.004038
C23 C -0.277224 -0.00104 -0.008164
C24 C -0.207582 0.008075 -0.02093
C25 C -0.220987 0.124812 -0.005578
C26 C -0.303138 -0.065053 -0.004986
C27 C -0.261037 -0.118742 -0.016859
C28 C -0.162695 -0.045397 -0.036665
C29 C -0.193216 -0.109732 -0.034214
N30 N -0.18014 0.068997 -0.01394
H31 H -0.201843 0.175386 -0.005587
H32 H -0.324561 0.159961 0.010236
H33 H -0.372317 0.047816 0.013398
H34 H -0.355113 -0.073512 0.009079
H35 H -0.281156 -0.168474 -0.010107
H36 H -0.167533 -0.155493 -0.038102
H37 H 0.306478 -0.046378 -0.062473
C38 C 0.25802 -0.027712 -0.043787
H39 H 0.298441 0.064939 -0.017876
H40 H 0.255419 -0.149758 -0.091156
C41 C 0.25194 0.036127 -0.018601
C42 C 0.208194 -0.131762 -0.069929
C43 C 0.201656 -0.067893 -0.043868
C44 C 0.153291 -0.172969 -0.069986
C45 C 0.187976 0.060586 0.003776
H46 H 0.159202 -0.222004 -0.092333
C47 C 0.137787 -0.043616 -0.019705
H48 H 0.189379 0.111237 0.022345
N49 N 0.129554 0.021149 0.000699
X5 C 0.091143 -0.151598 -0.044406
X5 C 0.079681 -0.085248 -0.01941
H52 H 0.055065 -0.189174 -0.05083
X5 C 0.181767 0.073705 -0.179726
H54 H 0.228486 0.077667 -0.208669
X5 C 0.164709 -0.035371 -0.225996
H56 H 0.208886 -0.031069 -0.25821
X5 C 0.160105 0.124496 -0.137518
X5 C 0.144082 0.016478 -0.183088
H59 H 0.194358 0.166755 -0.134968
C60 C 0.126521 -0.092943 -0.229342
C61 C 0.098501 0.120017 -0.099078
H62 H 0.140663 -0.131508 -0.265177
C63 C 0.084809 0.009659 -0.142752
H64 H 0.090683 0.162089 -0.066816
C65 C 0.070658 -0.099514 -0.186982
C66 C 0.055542 0.060913 -0.100202
N67 N 0.053398 -0.049339 -0.142644
H68 H 0.04126 -0.14437 -0.192128
C69 C -0.11812 0.029933 0.093817
C70 C -0.158557 0.087406 0.118218
H71 H -0.146913 0.138765 0.109508
C72 C -0.224893 0.081369 0.149907
N73 N -0.134422 -0.08708 0.086264
C74 C -0.158832 -0.0304 0.109317
C75 C -0.160602 -0.14905 0.105539
H76 H -0.256921 0.12327 0.163659
C77 C -0.222487 -0.035025 0.144957
C78 C -0.2556 0.020975 0.163616
H79 H -0.137607 -0.195936 0.092508
C80 C -0.22069 -0.15444 0.142122
C81 C -0.2534 -0.096878 0.159873
H82 H -0.305589 0.01666 0.187118
H83 H -0.243451 -0.202182 0.156286
H84 H -0.301656 -0.101597 0.186381
loop_
_geom_bond_atom_site_label_1
_geom_bond_atom_site_label_2
_geom_bond_distance
_geom_bond_site_symmetry_2
_ccdc_geom_bond_type
Ni1 O17 1.8569247372656226 . S
Ni1 O19 1.8127351586332185 . S
Ni2 O17 1.8379864443901646 . S
Ni2 O19 1.828063331688484 . S
O3 Ni2 1.745719889610587 . S
O4 Ni1 1.7657991998089702 . S
X5 O3 1.3799477471792183 . S
X5 O4 1.2493293549140674 . D
Ni6 O17 1.7692040783431402 . S
Ni7 O18 1.7645514723909301 . S
Ni7 O19 1.7603084806947902 . S
O8 Ni6 1.737130192077439 . S
O8 X10 1.3810070272688695 . S
O9 Ni7 1.7442188543499926 . S
O9 X10 1.2420797717107384 . D
O11 Ni1 1.7369106065295934 . S
O12 Ni6 1.754495349850207 . S
X13 O11 1.3621640589418735 . S
X13 O12 1.2381444566329889 . D
O14 Ni2 1.7471037221427352 . S
O15 Ni7 1.7439592060008169 . S
X16 O14 1.2298923806223863 . D
X16 O15 1.3599134927380492 . S
O18 Ni2 1.7946569636838676 . S
O18 Ni6 1.8399817840389072 . S
O20 Ni1 1.8016777726236177 . S
O20 Ni6 1.7620843991900614 . S
O20 Ni7 1.8328999518721691 . S
C21 C22 1.3874104950601316 . D
C21 C25 1.4187710032901721 . S
C21 H32 1.0911077449248534 . S
C22 C23 1.3993976529753793 . S
C22 H33 1.0947583924108557 . S
C23 C24 1.427727559953228 . D
C23 C26 1.382648427041741 . S
C24 C28 1.4313230236766963 . S
C24 N30 1.3436391371331815 . S
C25 N30 1.3933759270351271 . D
C25 H31 1.0815096707759944 . S
C26 C27 1.3850549427723078 . D
C26 H34 1.0900960730376017 . S
C27 C29 1.4116775330974136 . S
C27 H35 1.081405821837944 . S
C28 O18 1.427173377521456 . S
C29 C28 1.4250075938288893 . D
C29 H36 1.0523859707939858 . S
N30 Ni2 1.905426707750786 . S
C38 H37 1.1037752255251068 . S
C38 C43 1.3843830558151167 . S
C41 C38 1.377934970587872 . D
C41 H39 1.0941645473451422 . S
C41 C45 1.440895178262805 . S
C42 H40 1.0962915478220197 . S
C42 C44 1.3729437421850177 . D
C43 C42 1.3858226692203444 . S
C43 C47 1.4494730855748923 . D
C44 H46 1.084216624923728 . S
C44 X5 1.4104367088161027 . S
C45 H48 1.0793117976034545 . S
C45 N49 1.4110842963898367 . D
C47 N49 1.3680055442950516 . S
C47 X5 1.429639783487085 . S
N49 Ni1 2.0070949874804134 . S
X5 X5 1.4364506980418787 . D
X5 H52 1.0497293127001834 . S
X5 O20 1.4297974545836905 . S
X5 H54 1.1020041161021137 . S
X5 X5 1.3900337338683546 . D
X5 H56 1.096874160622357 . S
X5 X5 1.4078274159800268 . S
X5 H59 1.0891456179804424 . S
X5 C61 1.4550287144152863 . S
X5 X5 1.3720584556136812 . S
X5 C63 1.4403756752437884 . D
C60 X5 1.3833463290026111 . D
C60 H62 1.0902056438938477 . S
C60 C65 1.4082784163637532 . S
C61 H64 1.0718249935367246 . S
C61 C66 1.4614955235873972 . D
C63 C66 1.45521462862562 . S
C63 N67 1.336770971069091 . S
C65 N67 1.38294852092079 . D
C65 H68 1.0775439356972873 . S
C66 O19 1.4845132315058696 . S
N67 Ni7 1.8627498866399106 . S
C69 O17 1.5475821353472645 . S
C70 C69 1.4877852197215835 . D
C70 H71 1.0675495219192408 . S
C72 C70 1.4752663469533223 . S
C72 H76 1.090074566992552 . S
N73 Ni6 1.8697992767069944 . S
C74 C69 1.4883209639983574 . S
C74 N73 1.3175662270705788 . S
C75 N73 1.3996020306222767 . D
C75 H79 1.0764435236546315 . S
C77 C74 1.4619954049373751 . D
C77 C78 1.3536100235200688 . S
C78 C72 1.3825075746461573 . D
C78 H82 1.108124692724605 . S
C80 C75 1.4110935424648505 . S
C80 C81 1.370891605314585 . D
C80 H83 1.0950783269871616 . S
C81 C77 1.4147706018337391 . S
C81 H84 1.10518512527178 . S
