data_4c_Pd_CO
_audit_creation_date              2020-10-22
_audit_creation_method            'adam'
_symmetry_space_group_name_H-M    'P1'
_symmetry_Int_Tables_number       1
_symmetry_cell_setting            triclinic
loop_
_symmetry_equiv_pos_as_xyz
  x,y,z
_cell_length_a                    20
_cell_length_b                    20
_cell_length_c                    20
_cell_angle_alpha                 90
_cell_angle_beta                  90
_cell_angle_gamma                 90
loop_
_atom_site_label
_atom_site_type_symbol
_atom_site_fract_x
_atom_site_fract_y
_atom_site_fract_z
Pd1 Pd -0.131299 0.124656 0.01415
Pd2 Pd 0.011775 0.095078 -0.046599
Pd3 Pd -0.170805 0.022541 -0.042959
Pd4 Pd -0.020543 -0.013165 -0.075934
C5 C -0.100203 -0.04094 -0.015081
C6 C -0.107832 0.017473 -0.125068
C7 C -0.036761 0.096321 0.045746
C8 C -0.070157 0.155605 -0.060362
X9 C -0.254148 0.128612 -0.060287
O10 O -0.240999 0.072658 -0.080625
O11 O -0.208794 0.164577 -0.025069
O12 O -0.228867 0.013541 0.033373
O13 O -0.184922 0.100388 0.089692
X14 C -0.225075 0.054349 0.087177
O15 O 0.057561 0.010466 -0.134012
O16 O 0.037346 0.115228 -0.136894
O17 O 0.036563 -0.053487 -0.011208
O18 O 0.091646 0.036448 -0.033344
X19 C 0.065522 0.069562 -0.165056
X20 C 0.090109 -0.025391 -0.005995
O21 O -0.125191 0.002434 -0.181547
O22 O -0.012028 0.11278 0.099004
O23 O -0.070673 0.21034 -0.087561
O24 O -0.111385 -0.095911 0.008651
loop_
_geom_bond_atom_site_label_1
_geom_bond_atom_site_label_2
_geom_bond_distance
_geom_bond_site_symmetry_2
_ccdc_geom_bond_type
Pd3 C6 2.0720340189837616 . S
Pd4 C5 2.080401105451783 . S
C5 Pd3 1.9790545231033934 . S
C6 Pd4 2.0949671584225373 . S
C6 O21 1.2194055633282963 . D
C7 Pd1 2.072541312078966 . S
C7 Pd2 2.086608314676715 . S
C7 O22 1.2196668547271423 . D
C8 Pd1 2.0246827477827236 . S
C8 Pd2 2.055798837592093 . S
C8 O23 1.2224493336690887 . D
X9 O10 1.2193981440042458 . D
O10 Pd3 1.8822938041522639 . S
O11 Pd1 1.9117929564599818 . S
O11 X9 1.3550979173631696 . S
O12 Pd3 1.9265301646857234 . S
O13 Pd1 1.915286244728448 . S
X14 O12 1.352693875396056 . S
X14 O13 1.2228258758699047 . D
O15 Pd4 2.0031652126137773 . S
O16 Pd2 1.9196921053723692 . S
O17 Pd4 1.9053957912205537 . S
O18 Pd2 1.9992479822555782 . S
X19 O15 1.344540772711635 . S
X19 O16 1.212003672735772 . D
X20 O17 1.2138733297099 . D
X20 O18 1.3526918255925848 . S
O24 C5 1.2182121054188386 . D
