data_4c_Pd_Co_pw
_audit_creation_date              2020-10-22
_audit_creation_method            'adam'
_symmetry_space_group_name_H-M    'P1'
_symmetry_Int_Tables_number       1
_symmetry_cell_setting            triclinic
loop_
_symmetry_equiv_pos_as_xyz
  x,y,z
_cell_length_a                    20
_cell_length_b                    20
_cell_length_c                    20
_cell_angle_alpha                 90
_cell_angle_beta                  90
_cell_angle_gamma                 90
loop_
_atom_site_label
_atom_site_type_symbol
_atom_site_fract_x
_atom_site_fract_y
_atom_site_fract_z
Pd1 Pd -0.118822 0.074543 -0.001211
Co2 Co -0.110508 -0.036171 0.002665
O3 O -0.213339 0.062732 -0.003601
O4 O -0.197925 -0.047483 0.000472
O5 O -0.023285 0.085181 0.00123
O6 O -0.017923 -0.024616 0.002335
X7 C -0.237338 0.006647 -0.002895
X8 C 0.011844 0.035572 0.002942
O9 O -0.115993 0.069903 -0.096314
O10 O -0.094697 -0.04115 -0.08838
O11 O -0.121098 0.074496 0.094024
O12 O -0.101779 -0.03487 0.092771
X13 C -0.113553 0.015458 0.125354
X14 C -0.106297 0.008743 -0.12407
N15 N -0.086072 -0.128378 0.031434
X16 C -0.065448 -0.18768 0.047346
X17 C -0.04365 -0.249642 0.06382
H18 H -0.065402 -0.287038 0.097367
H19 H 0.001232 -0.269643 0.045326
loop_
_geom_bond_atom_site_label_1
_geom_bond_atom_site_label_2
_geom_bond_distance
_geom_bond_site_symmetry_2
_ccdc_geom_bond_type
Pd1 O3 1.905644118213314 . S
Pd1 O5 1.9231540671204688 . S
Co2 O4 1.7634646950684891 . S
Co2 O6 1.8660792974203964 . S
Co2 N15 1.9926742042418775 . S
X7 O3 1.2201554466054725 . D
X7 O4 1.3408624245018577 . S
X8 O5 1.2162224840603795 . D
X8 O6 1.3429998935640317 . S
O9 Pd1 1.9051664429093853 . S
O10 Co2 1.8508357113393397 . S
O10 X14 1.2486217808664077 . D
O11 Pd1 1.905235287588911 . S
O12 Co2 1.8107405779685835 . S
X13 O11 1.3452058539156748 . S
X13 O12 1.2220092431782175 . D
X14 O9 1.357209906691297 . S
N15 X16 1.2954232543589759 . D
X16 X17 1.35438118251067 . D
X17 H18 1.0948840690584547 . S
X17 H19 1.0500468408552066 . S
