data_4c_Pd_Zn_pw
_audit_creation_date              2020-10-22
_audit_creation_method            'adam'
_symmetry_space_group_name_H-M    'P1'
_symmetry_Int_Tables_number       1
_symmetry_cell_setting            triclinic
loop_
_symmetry_equiv_pos_as_xyz
  x,y,z
_cell_length_a                    20
_cell_length_b                    20
_cell_length_c                    20
_cell_angle_alpha                 90
_cell_angle_beta                  90
_cell_angle_gamma                 90
loop_
_atom_site_label
_atom_site_type_symbol
_atom_site_fract_x
_atom_site_fract_y
_atom_site_fract_z
Zn1 Zn -0.092443 -0.081525 -0.034129
O2 O -0.170641 -0.039593 -0.055115
O3 O -0.060266 0.064081 -0.013017
O4 O -0.069983 -0.013209 -0.089767
X5 C -0.202201 -0.000525 -0.009668
X6 C -0.057761 0.044888 -0.076568
O7 O 0.012413 -0.022632 0.054596
O8 O -0.002488 -0.085205 -0.037184
O9 O -0.101614 -0.073191 0.112645
O10 O -0.114511 -0.146057 0.027261
X11 C -0.116406 -0.134593 0.087683
Pd12 Pd -0.080795 -0.003541 0.051546
X13 C 0.036909 -0.056028 0.009588
O14 O -0.174439 0.01284 0.04293
O15 O -0.100006 -0.144916 -0.101843
H16 H -0.14701 -0.151373 -0.115644
H17 H -0.080541 -0.122091 -0.141894
loop_
_geom_bond_atom_site_label_1
_geom_bond_atom_site_label_2
_geom_bond_distance
_geom_bond_site_symmetry_2
_ccdc_geom_bond_type
Zn1 O2 1.8235923853531522 . S
Zn1 O4 1.8184726081505873 . S
Zn1 O15 1.8612650610877537 . S
X5 O2 1.354670088270941 . S
X5 O14 1.2191600164182712 . D
X6 O3 1.3286536989934583 . S
X6 O4 1.216355395969451 . D
O8 Zn1 1.801634511684598 . S
O10 Zn1 1.835231962707167 . S
X11 O9 1.3582572861030415 . S
X11 O10 1.2305839583904872 . D
Pd12 O3 1.9144363533450255 . S
Pd12 O7 1.9038432502732465 . S
Pd12 O9 1.8992196666257433 . S
X13 O7 1.223285187487366 . D
X13 O8 1.355148628882456 . S
O14 Pd12 1.9091006561857864 . S
O15 H16 0.9882379390683197 . S
O15 H17 1.0007920606069978 . S
