data_4c_Pd_Mn_pw
_audit_creation_date              2020-10-22
_audit_creation_method            'adam'
_symmetry_space_group_name_H-M    'P1'
_symmetry_Int_Tables_number       1
_symmetry_cell_setting            triclinic
loop_
_symmetry_equiv_pos_as_xyz
  x,y,z
_cell_length_a                    20
_cell_length_b                    20
_cell_length_c                    20
_cell_angle_alpha                 90
_cell_angle_beta                  90
_cell_angle_gamma                 90
loop_
_atom_site_label
_atom_site_type_symbol
_atom_site_fract_x
_atom_site_fract_y
_atom_site_fract_z
Pd1 Pd -0.125976 0.072031 -0.001641
Mn2 Mn -0.103544 -0.034732 0.001862
O3 O -0.220519 0.06052 -0.002184
O4 O -0.198814 -0.046939 0.005318
O5 O -0.032404 0.093933 -0.001336
O6 O -0.010316 -0.013224 -0.000165
X7 C -0.242154 0.004062 0.001529
X8 C 0.009789 0.050462 -0.000759
O9 O -0.122456 0.063966 -0.097329
O10 O -0.072891 -0.035998 -0.088515
O11 O -0.124144 0.069801 0.094408
O12 O -0.074886 -0.030722 0.092756
X13 C -0.091422 0.018826 0.125038
X14 C -0.089023 0.011351 -0.124158
O15 O -0.104029 -0.131475 0.003117
H16 H -0.058957 -0.148895 0.013921
H17 H -0.139295 -0.150013 0.032545
loop_
_geom_bond_atom_site_label_1
_geom_bond_atom_site_label_2
_geom_bond_distance
_geom_bond_site_symmetry_2
_ccdc_geom_bond_type
Pd1 O3 1.9048542432220372 . S
Pd1 O5 1.9220422761539355 . S
Mn2 O4 1.9222078008449033 . S
Mn2 O6 1.913979295344649 . S
Mn2 O15 1.9350472460795372 . S
X7 O3 1.2115018791392773 . D
X7 O4 1.340724381612045 . S
X8 O5 1.211661549628443 . D
X8 O6 1.3357247949267095 . S
O9 Pd1 1.9218390270327013 . S
O10 Mn2 1.9088396126133804 . S
O10 X14 1.228421481772441 . D
O11 Pd1 1.9218460256859808 . S
O12 Mn2 1.90779962006391 . S
X13 O11 1.3575572425577496 . S
X13 O12 1.2281035195752026 . D
X14 O9 1.3573350761109064 . S
O15 H16 0.9902817238553884 . S
O15 H17 0.9906232409644952 . S
