data_4c_Pt_pw
_audit_creation_date              2020-10-22
_audit_creation_method            'adam'
_symmetry_space_group_name_H-M    'P1'
_symmetry_Int_Tables_number       1
_symmetry_cell_setting            triclinic
loop_
_symmetry_equiv_pos_as_xyz
  x,y,z
_cell_length_a                    20
_cell_length_b                    20
_cell_length_c                    20
_cell_angle_alpha                 90
_cell_angle_beta                  90
_cell_angle_gamma                 90
loop_
_atom_site_label
_atom_site_type_symbol
_atom_site_fract_x
_atom_site_fract_y
_atom_site_fract_z
Pt1 Pt -0.122064 0.08095 0.000322
Pt2 Pt -0.114929 -0.037058 0.000174
O3 O -0.219304 0.078112 -0.002058
O4 O -0.213034 -0.03296 -0.002426
O5 O -0.023674 0.082563 0.002735
O6 O -0.017585 -0.027498 0.002791
X7 C -0.247963 0.024527 -0.003019
X8 C 0.011071 0.03277 0.003562
O9 O -0.10374 0.064819 -0.096005
O10 O -0.084051 -0.045381 -0.091148
O11 O -0.108456 0.064354 0.097347
O12 O -0.088958 -0.045916 0.09296
X13 C -0.089769 0.005516 0.125788
X14 C -0.083372 0.006204 -0.123734
O15 O -0.145211 0.177133 -1.7e-05
O16 O -0.137571 -0.133354 -0.000704
loop_
_geom_bond_atom_site_label_1
_geom_bond_atom_site_label_2
_geom_bond_distance
_geom_bond_site_symmetry_2
_ccdc_geom_bond_type
Pt1 O3 1.9462195866823457 . S
Pt1 O5 1.968639859460587 . S
Pt1 O15 1.978581674909075 . S
Pt2 O4 1.9644808708607981 . S
Pt2 O6 1.9569632216329467 . S
Pt2 O16 1.9785242031458699 . S
X7 O3 1.2155093341398082 . D
X7 O4 1.3453781543346839 . S
X8 O5 1.2144460384578641 . D
X8 O6 1.334766463748247 . S
O9 Pt1 1.9874386068007235 . S
O10 Pt2 1.9352049163106735 . S
O10 X14 1.2203796983148318 . D
O11 Pt1 1.9874040018008414 . S
O12 Pt2 1.9351727777891048 . S
X13 O11 1.3594028557694 . S
X13 O12 1.220430712654348 . D
X14 O9 1.3593397393889433 . S
