data_4c_Pd_C6H4
_audit_creation_date              2020-10-22
_audit_creation_method            'adam'
_symmetry_space_group_name_H-M    'P1'
_symmetry_Int_Tables_number       1
_symmetry_cell_setting            triclinic
loop_
_symmetry_equiv_pos_as_xyz
  x,y,z
_cell_length_a                    20
_cell_length_b                    20
_cell_length_c                    20
_cell_angle_alpha                 90
_cell_angle_beta                  90
_cell_angle_gamma                 90
loop_
_atom_site_label
_atom_site_type_symbol
_atom_site_fract_x
_atom_site_fract_y
_atom_site_fract_z
Pd1 Pd -0.16519 0.101338 0.024466
Pd2 Pd -0.019572 0.147148 0.037095
Pd3 Pd -0.029451 0.007559 0.016027
C4 C -0.092718 -0.057341 0.056237
S5 S -0.082165 -0.021991 -0.074007
S6 S -0.100755 0.12293 0.108198
C7 C -0.102049 0.172464 -0.017642
X8 C -0.252018 0.040428 -0.081108
O9 O -0.23962 -0.018295 -0.070764
O10 O -0.21054 0.088781 -0.059009
O11 O -0.240506 -0.046806 0.051036
O12 O -0.235282 0.063277 0.08097
X13 C -0.261445 0.007705 0.084698
O14 O 0.024766 0.063101 -0.044085
O15 O 0.049732 0.165908 -0.023585
O16 O 0.004278 0.018686 0.106967
O17 O 0.051795 0.113553 0.091583
X18 C 0.071264 0.112398 -0.042999
X19 C 0.041787 0.060602 0.129242
Pd20 Pd -0.168989 -0.040083 -0.010186
C21 C -0.067671 -0.119259 0.043443
C22 C -0.119842 -0.044982 0.123803
C23 C -0.125107 -0.093902 0.168506
C24 C -0.073825 -0.17383 0.092598
C25 C -0.10175 -0.161683 0.15205
H26 H -0.041081 -0.130056 -0.002902
H27 H -0.055519 -0.22335 0.080722
H28 H -0.10654 -0.201008 0.188642
H29 H -0.136774 0.003827 0.137456
H30 H -0.146322 -0.083235 0.216852
C31 C -0.124408 0.233587 0.001111
C32 C -0.084337 0.163754 -0.089957
C33 C -0.087678 0.214866 -0.133499
C34 C -0.111854 0.280916 -0.111123
C35 C -0.129747 0.289686 -0.047177
H36 H -0.141074 0.241991 0.051828
H37 H -0.06677 0.116 -0.10816
H38 H -0.073171 0.207701 -0.185361
H39 H -0.115889 0.321795 -0.146603
H40 H -0.148772 0.337725 -0.030618
loop_
_geom_bond_atom_site_label_1
_geom_bond_atom_site_label_2
_geom_bond_distance
_geom_bond_site_symmetry_2
_ccdc_geom_bond_type
Pd3 C4 1.9830769817362108 . S
C4 C21 1.3601394651689214 . D
C4 C22 1.4769791839497945 . S
S5 Pd3 2.1687067506237443 . D
S6 Pd1 2.1567636879788203 . D
S6 Pd2 2.212043653227938 . D
C7 Pd1 2.0802736223357736 . S
C7 Pd2 2.043462472862666 . S
C7 C31 1.3546393779511945 . D
C7 C32 1.4992158103675401 . S
X8 O9 1.2180554344154457 . D
O10 Pd1 1.9165015688543017 . S
O10 X8 1.3486005243662782 . S
O12 Pd1 1.9549018768654347 . S
X13 O11 1.3480331036517612 . S
X13 O12 1.2307107991246362 . D
O14 Pd3 1.9634652227788505 . S
O15 Pd2 1.8801104556161055 . S
O16 Pd3 1.952576322420458 . S
O17 Pd2 1.9173966327192191 . S
X18 O14 1.3554873361835589 . S
X18 O15 1.2171891803635126 . D
X19 O16 1.2099635035074405 . D
X19 O17 1.3148695660030314 . S
Pd20 C4 2.052034980218417 . S
Pd20 S5 2.1853071840647487 . D
Pd20 O9 1.9113434686706625 . S
Pd20 O11 1.8876538049891458 . S
C21 C24 1.474038825574483 . S
C21 H26 1.0902422039629542 . S
C22 C23 1.3295493157837357 . D
C22 H29 1.068712765284012 . S
C23 H30 1.0772445550444893 . S
C24 C25 1.3359655295167614 . D
C24 H27 1.0822757663109708 . S
C25 C23 1.4711317136558508 . S
C25 H28 1.0785896278664093 . S
C31 H36 1.0808530355890205 . S
C32 C33 1.3445275376778272 . D
C32 H37 1.0808202919176715 . S
C33 C34 1.476183085063299 . S
C33 H38 1.0865530719969458 . S
C34 C35 1.3395895900830972 . D
C34 H39 1.085578874492314 . S
C35 C31 1.4842304213692696 . S
C35 H40 1.0851486557896113 . S
