data_4c_Pd_S
_audit_creation_date              2020-10-22
_audit_creation_method            'adam'
_symmetry_space_group_name_H-M    'P1'
_symmetry_Int_Tables_number       1
_symmetry_cell_setting            triclinic
loop_
_symmetry_equiv_pos_as_xyz
  x,y,z
_cell_length_a                    20
_cell_length_b                    20
_cell_length_c                    20
_cell_angle_alpha                 90
_cell_angle_beta                  90
_cell_angle_gamma                 90
loop_
_atom_site_label
_atom_site_type_symbol
_atom_site_fract_x
_atom_site_fract_y
_atom_site_fract_z
Pd1 Pd -0.110108 0.163143 -0.012659
Pd2 Pd 0.026693 0.177563 0.010393
Pd3 Pd 0.030662 0.013887 -0.025602
S4 S -0.050797 -0.062317 0.018663
S5 S -0.062005 0.188467 0.090389
S6 S -0.038374 0.247279 -0.060773
X7 C -0.183654 0.097949 -0.1278
O8 O -0.191403 0.034426 -0.109692
O9 O -0.150814 0.139959 -0.097033
O10 O -0.199032 0.004655 0.008935
O11 O -0.159768 0.104275 0.045144
X12 C -0.207098 0.05663 0.040451
O13 O 0.10401 0.058531 -0.069898
O14 O 0.097372 0.172622 -0.053752
O15 O 0.08117 0.016728 0.054976
O16 O 0.07986 0.130585 0.075673
X17 C 0.124371 0.122857 -0.076941
X18 C 0.099686 0.066347 0.0857
Pd19 Pd -0.127508 -0.0065 -0.053629
S20 S -0.032174 0.004855 -0.127009
C21 C -0.027068 0.224574 -0.148606
C22 C -0.045356 0.287452 -0.189903
H23 H 0.025947 0.212461 -0.159222
H24 H -0.060763 0.183641 -0.163851
H25 H -0.038879 0.279217 -0.244501
H26 H -0.013426 0.330871 -0.1756
H27 H -0.098261 0.302376 -0.181023
C28 C -0.066545 0.278662 0.08903
C29 C -0.102143 0.298686 0.152796
H30 H -0.095234 0.299426 0.046238
H31 H -0.014273 0.297396 0.089175
H32 H -0.155577 0.283421 0.150019
H33 H -0.098724 0.353399 0.159491
H34 H -0.078697 0.2733 0.196386
C35 C -0.070086 -0.047814 0.106473
C36 C -0.064297 -0.116049 0.142228
H37 H -0.12167 -0.029063 0.112584
H38 H -0.033487 -0.012822 0.129091
H39 H -0.099264 -0.153346 0.120085
H40 H -0.076324 -0.111582 0.196225
H41 H -0.012846 -0.137083 0.13799
C42 C -0.010671 -0.085018 -0.132584
C43 C 0.022346 -0.101923 -0.199634
H44 H -0.055664 -0.116837 -0.126022
H45 H 0.026404 -0.097557 -0.093152
H46 H -0.012359 -0.092097 -0.241774
H47 H 0.036448 -0.155772 -0.201082
H48 H 0.068771 -0.07224 -0.206868
loop_
_geom_bond_atom_site_label_1
_geom_bond_atom_site_label_2
_geom_bond_distance
_geom_bond_site_symmetry_2
_ccdc_geom_bond_type
Pd3 S4 2.400169486624226 . S
S4 C35 1.8213213888740227 . S
S5 Pd1 2.3301527316543007 . S
S5 Pd2 2.3988020885268964 . S
S5 C28 1.8063912972163594 . S
S6 Pd1 2.4116057708081144 . S
S6 Pd2 2.379799008285784 . S
S6 C21 1.8284468404736303 . S
X7 O8 1.3301433175462707 . S
O9 Pd1 1.9301222843234571 . S
O9 X7 1.2312381408366948 . D
O11 Pd1 1.9258990022412912 . S
X12 O10 1.2263291161066836 . D
X12 O11 1.346447103967326 . S
O13 Pd3 1.932357513954651 . S
O14 Pd2 1.9114869621041104 . S
O15 Pd3 1.9028341795253731 . S
O16 Pd2 1.9282359136018599 . S
X17 O13 1.3567652748305434 . S
X17 O14 1.2236327116071226 . D
X18 O15 1.224567016793691 . D
X18 O16 1.3594230902618212 . S
Pd19 S4 2.385482662616729 . S
Pd19 O8 1.8868500658118015 . S
Pd19 O10 1.9135514358399148 . S
Pd19 S20 2.416810418730646 . S
S20 Pd3 2.3927668965016213 . S
S20 C42 1.8515423813988166 . S
C21 C22 1.548353007166325 . S
C21 H23 1.1081492749508073 . S
C21 H24 1.1033104062076091 . S
C22 H25 1.1118860761669784 . S
C22 H26 1.1152296291194923 . S
C22 H27 1.1136384921131275 . S
C28 C29 1.5144867093437961 . S
C28 H30 1.1109214076387222 . S
C28 H31 1.1105595742354393 . S
C29 H32 1.1128169365295442 . S
C29 H33 1.1045243561085472 . S
C29 H34 1.112531527307878 . S
C35 C36 1.5450509419426919 . S
C35 H37 1.10453223310051 . S
C35 H38 1.1091526146703168 . S
C36 H39 1.1142709035831457 . S
C36 H40 1.109993965789905 . S
C36 H41 1.1149074928239562 . S
C42 C43 1.5325348061590638 . S
C42 H44 1.1099209492549458 . S
C42 H45 1.1111664653007667 . S
C43 H46 1.1093693229245165 . S
C43 H47 1.113670917710434 . S
C43 H48 1.1115286716059105 . S
