data_4c_Ru_h2o_pw
_audit_creation_date              2020-10-22
_audit_creation_method            'adam'
_symmetry_space_group_name_H-M    'P1'
_symmetry_Int_Tables_number       1
_symmetry_cell_setting            triclinic
loop_
_symmetry_equiv_pos_as_xyz
  x,y,z
_cell_length_a                    20
_cell_length_b                    20
_cell_length_c                    20
_cell_angle_alpha                 90
_cell_angle_beta                  90
_cell_angle_gamma                 90
loop_
_atom_site_label
_atom_site_type_symbol
_atom_site_fract_x
_atom_site_fract_y
_atom_site_fract_z
Ru1 Ru -0.120329 0.078308 -0.004696
Ru2 Ru -0.120103 -0.04522 0.006566
O3 O -0.221264 0.068834 -0.011536
O4 O -0.219569 -0.044577 -0.002836
O5 O -0.020435 0.079797 0.005184
O6 O -0.019307 -0.033755 0.012059
X7 C -0.251398 0.015052 -0.007641
X8 C 0.011181 0.027324 0.008925
O9 O -0.122267 0.064702 -0.104085
O10 O -0.121197 -0.04869 -0.095034
O11 O -0.117989 0.080391 0.096382
O12 O -0.11893 -0.032766 0.106569
X13 C -0.119019 0.022792 0.132714
X14 C -0.120161 0.002037 -0.130169
O15 O -0.118854 -0.142765 0.018134
H16 H -0.126702 -0.145261 0.067043
O17 O -0.121364 0.175447 -0.015969
H18 H -0.098412 0.197378 0.021406
H19 H -0.124636 0.187992 -0.063839
H20 H -0.153378 -0.156929 -0.013754
loop_
_geom_bond_atom_site_label_1
_geom_bond_atom_site_label_2
_geom_bond_distance
_geom_bond_site_symmetry_2
_ccdc_geom_bond_type
Ru1 O3 2.032182934780479 . S
Ru1 O5 2.007842820839072 . S
Ru1 O17 1.9559338635488164 . S
Ru2 Ru1 2.480818539628201 . S
Ru2 O4 1.9982252308966575 . S
Ru2 O6 2.0318831559410597 . S
Ru2 O15 1.964728389761292 . S
X7 O3 1.2354284619726066 . D
X7 O4 1.3552700988666426 . S
X8 O5 1.2275098717932986 . D
X8 O6 1.366751546400808 . S
O9 Ru1 2.006695360006097 . S
O10 Ru2 2.0333015997458417 . S
O10 X14 1.2343040037624444 . D
O11 Ru1 2.022533546341568 . S
O12 Ru2 2.0156438367980587 . S
X13 O11 1.3621479498241005 . S
X13 O12 1.2280577849458063 . D
X14 O9 1.3582054401466666 . S
O15 H16 0.9919533487029519 . S
O15 H20 0.9817052200380724 . S
O17 H18 0.9807409530191957 . S
O17 H19 0.9918964535666009 . S
