data_4c_Re_Cl_pw
_audit_creation_date              2020-10-22
_audit_creation_method            'adam'
_symmetry_space_group_name_H-M    'P1'
_symmetry_Int_Tables_number       1
_symmetry_cell_setting            triclinic
loop_
_symmetry_equiv_pos_as_xyz
  x,y,z
_cell_length_a                    20
_cell_length_b                    20
_cell_length_c                    20
_cell_angle_alpha                 90
_cell_angle_beta                  90
_cell_angle_gamma                 90
loop_
_atom_site_label
_atom_site_type_symbol
_atom_site_fract_x
_atom_site_fract_y
_atom_site_fract_z
Re1 Re -0.121802 0.080525 -0.001208
Re2 Re -0.113999 -0.036271 0.00169
O3 O -0.217911 0.07716 -0.003644
O4 O -0.210931 -0.034044 -0.000858
O5 O -0.024732 0.084147 0.001246
O6 O -0.017785 -0.026119 0.003934
X7 C -0.246216 0.023293 -0.003122
X8 C 0.010387 0.034545 0.003288
O9 O -0.103289 0.061685 -0.095871
O10 O -0.083994 -0.04825 -0.088132
O11 O -0.108283 0.066077 0.095059
O12 O -0.088668 -0.044058 0.093393
X13 C -0.089714 0.007958 0.125098
X14 C -0.083303 0.002253 -0.122205
Cl15 Cl -0.149955 0.193403 -0.00454
Cl16 Cl -0.139056 -0.149901 0.003668
loop_
_geom_bond_atom_site_label_1
_geom_bond_atom_site_label_2
_geom_bond_distance
_geom_bond_site_symmetry_2
_ccdc_geom_bond_type
Re1 O3 1.9239742206484989 . S
Re1 O5 1.9433772518968107 . S
Re1 Cl15 2.3276760597411315 . S
Re2 O4 1.9398223184781642 . S
Re2 O6 1.935470942521742 . S
Re2 Cl16 2.32752504827338 . S
X7 O3 1.2170731958078775 . D
X7 O4 1.3472514180667987 . S
X8 O5 1.216212526517878 . D
X8 O6 1.337779654848286 . S
O9 Re1 1.9655807955851115 . S
O10 Re2 1.9091091473213362 . S
O10 X14 1.2185265541045875 . D
O11 Re1 1.965585839554966 . S
O12 Re2 1.909113505813104 . S
X13 O11 1.360143723946113 . S
X13 O12 1.2185171203450529 . D
X14 O9 1.3601557846195413 . S
