data_4c_Rh_Cl_pw
_audit_creation_date              2020-10-22
_audit_creation_method            'adam'
_symmetry_space_group_name_H-M    'P1'
_symmetry_Int_Tables_number       1
_symmetry_cell_setting            triclinic
loop_
_symmetry_equiv_pos_as_xyz
  x,y,z
_cell_length_a                    20
_cell_length_b                    20
_cell_length_c                    20
_cell_angle_alpha                 90
_cell_angle_beta                  90
_cell_angle_gamma                 90
loop_
_atom_site_label
_atom_site_type_symbol
_atom_site_fract_x
_atom_site_fract_y
_atom_site_fract_z
Rh1 Rh -0.1102 -0.041826 0.002819
O2 O -0.211177 0.050125 -0.005814
O3 O -0.202222 -0.058163 6.5e-05
O4 O -0.022694 0.076333 -0.003053
O5 O -0.015621 -0.030853 0.007249
X6 C -0.23947 -0.003492 -0.002686
X7 C 0.013445 0.028879 0.003617
O8 O -0.102137 0.081849 -0.093141
O9 O -0.095956 -0.029589 -0.092763
O10 O -0.105901 0.090025 0.083324
O11 O -0.103656 -0.02049 0.097221
X12 C -0.1048 0.035738 0.122733
X13 C -0.096328 0.023202 -0.125118
Rh14 Rh -0.116072 0.061967 -0.004296
Cl15 Cl -0.106523 -0.152825 0.006458
Cl16 Cl -0.136796 0.171304 -0.013042
loop_
_geom_bond_atom_site_label_1
_geom_bond_atom_site_label_2
_geom_bond_distance
_geom_bond_site_symmetry_2
_ccdc_geom_bond_type
Rh1 O3 1.8700225256047054 . S
Rh1 O5 1.9063401746668929 . S
Rh1 Cl15 2.222391595769971 . S
X6 O2 1.2140929584101046 . D
X6 O3 1.3242156574837045 . S
X7 O4 1.2004085684536743 . D
X7 O5 1.330563902172684 . S
O9 Rh1 1.948176583213647 . S
O9 X13 1.238373085930488 . D
O11 Rh1 1.9400822349939189 . S
X12 O10 1.341829923348708 . S
X12 O11 1.2351191212713049 . D
X13 O8 1.3410023385788705 . S
Rh14 O2 1.917027978169072 . S
Rh14 O4 1.889697149336634 . S
Rh14 O8 1.8420617312905125 . S
Rh14 O10 1.8512665589538964 . S
Rh14 Cl16 2.232518440640076 . S
