data_4c_Tc_pw
_audit_creation_date              2020-10-22
_audit_creation_method            'adam'
_symmetry_space_group_name_H-M    'P1'
_symmetry_Int_Tables_number       1
_symmetry_cell_setting            triclinic
loop_
_symmetry_equiv_pos_as_xyz
  x,y,z
_cell_length_a                    20
_cell_length_b                    20
_cell_length_c                    20
_cell_angle_alpha                 90
_cell_angle_beta                  90
_cell_angle_gamma                 90
loop_
_atom_site_label
_atom_site_type_symbol
_atom_site_fract_x
_atom_site_fract_y
_atom_site_fract_z
Tc1 Tc -0.129122 0.08112 -0.001637
Tc2 Tc -0.115879 -0.040497 0.001235
O3 O -0.22065 0.069943 -0.00386
O4 O -0.208244 -0.04352 -0.00118
O5 O -0.036478 0.089117 0.000683
O6 O -0.024086 -0.025963 0.003396
X7 C -0.245565 0.013563 -0.003362
X8 C 0.000205 0.038736 0.002709
O9 O -0.109157 0.065449 -0.091722
O10 O -0.086632 -0.044301 -0.085571
O11 O -0.114029 0.069208 0.08996
O12 O -0.091329 -0.040678 0.089566
X13 C -0.094967 0.011725 0.120568
X14 C -0.088545 0.006771 -0.118863
loop_
_geom_bond_atom_site_label_1
_geom_bond_atom_site_label_2
_geom_bond_distance
_geom_bond_site_symmetry_2
_ccdc_geom_bond_type
Tc1 Tc2 2.4474032760242026 . S
Tc1 O3 1.8447073308218838 . S
Tc1 O5 1.8603454239570671 . S
Tc2 O4 1.8489117822286714 . S
Tc2 O6 1.859250051490923 . S
X7 O3 1.2328293540936635 . D
X7 O4 1.3647127470427611 . S
X8 O5 1.24706858320503 . D
X8 O6 1.3822352962350515 . S
O9 Tc1 1.8718567799714272 . S
O10 Tc2 1.8335924606637648 . S
O10 X14 1.219904427913515 . D
O11 Tc1 1.8718577094464204 . S
O12 Tc2 1.8335933972075162 . S
X13 O11 1.3571328342778388 . S
X13 O12 1.2199044259916427 . D
X14 O9 1.357132620134451 . S
