data_4c_W_pw
_audit_creation_date              2020-10-22
_audit_creation_method            'adam'
_symmetry_space_group_name_H-M    'P1'
_symmetry_Int_Tables_number       1
_symmetry_cell_setting            triclinic
loop_
_symmetry_equiv_pos_as_xyz
  x,y,z
_cell_length_a                    20
_cell_length_b                    20
_cell_length_c                    20
_cell_angle_alpha                 90
_cell_angle_beta                  90
_cell_angle_gamma                 90
loop_
_atom_site_label
_atom_site_type_symbol
_atom_site_fract_x
_atom_site_fract_y
_atom_site_fract_z
W1 W -0.130531 0.083293 -0.001719
W2 W -0.116814 -0.044523 0.001293
O3 O -0.228386 0.069964 -0.004068
O4 O -0.216076 -0.044362 -0.001373
O5 O -0.030931 0.087856 0.000857
O6 O -0.019018 -0.027708 0.003568
X7 C -0.252946 0.013296 -0.003554
X8 C 0.004999 0.036974 0.002874
O9 O -0.108968 0.066348 -0.097775
O10 O -0.084118 -0.043302 -0.09159
O11 O -0.114164 0.070357 0.095972
O12 O -0.08914 -0.039428 0.095664
X13 C -0.092543 0.01354 0.125829
X14 C -0.085842 0.00837 -0.124057
loop_
_geom_bond_atom_site_label_1
_geom_bond_atom_site_label_2
_geom_bond_distance
_geom_bond_site_symmetry_2
_ccdc_geom_bond_type
W1 W2 2.5717060124714877 . S
W1 O3 1.9757208789576024 . S
W1 O5 1.9947531468673012 . S
W2 O4 1.9859582943158698 . S
W2 O6 1.985155747632412 . S
X7 O3 1.235276174110065 . D
X7 O4 1.369456319490695 . S
X8 O5 1.2464313475807645 . D
X8 O6 1.3799938759896726 . S
O9 W1 1.9978745514931613 . S
O10 W2 1.9695419787184025 . S
O10 X14 1.2209985497034792 . D
O11 W1 1.9978752732325409 . S
O12 W2 1.96954121192627 . S
X13 O11 1.3545592288597053 . S
X13 O12 1.2209987928810575 . D
X14 O9 1.354558776116415 . S
