data_4c_Zn_Ni_ox
_audit_creation_date              2020-10-22
_audit_creation_method            'adam'
_symmetry_space_group_name_H-M    'P1'
_symmetry_Int_Tables_number       1
_symmetry_cell_setting            triclinic
loop_
_symmetry_equiv_pos_as_xyz
  x,y,z
_cell_length_a                    20
_cell_length_b                    20
_cell_length_c                    20
_cell_angle_alpha                 90
_cell_angle_beta                  90
_cell_angle_gamma                 90
loop_
_atom_site_label
_atom_site_type_symbol
_atom_site_fract_x
_atom_site_fract_y
_atom_site_fract_z
Zn1 Zn -0.029103 0.122711 -0.045252
Zn2 Zn -0.022839 -0.151358 0.049917
Ni3 Ni -0.030881 -0.014957 0.004473
O4 O -0.107691 0.131522 -0.007257
O5 O -0.08225 0.039864 0.051937
O6 O 0.043477 0.130834 0.004295
O7 O 0.043426 0.021819 0.035655
X8 C -0.123747 0.090172 0.034214
X9 C 0.069135 0.08442 0.034308
O10 O -0.105242 -0.052696 -0.027854
O11 O 0.020712 -0.069924 -0.043204
O12 O 0.058727 -0.154343 0.019532
O13 O -0.083496 -0.163302 -0.012728
X14 C -0.122082 -0.111874 -0.032834
X15 C 0.069741 -0.112427 -0.022963
O16 O -0.030165 0.037492 -0.069717
O17 O -0.032407 -0.067535 0.077132
N18 N -0.024451 0.174179 -0.104351
N19 N -0.032211 -0.204196 0.107256
loop_
_geom_bond_atom_site_label_1
_geom_bond_atom_site_label_2
_geom_bond_distance
_geom_bond_site_symmetry_2
_ccdc_geom_bond_type
Zn1 N18 1.5701411851948217 . T
Zn2 N19 1.570666718660582 . T
O4 Zn1 1.7546858120179234 . S
O5 Ni3 1.77728195980379 . S
O6 Zn1 1.7650668158044331 . S
O7 Ni3 1.7716014501966857 . S
X8 O4 1.2144807382791214 . D
X8 O5 1.3515976074231562 . S
X9 O6 1.2187676939860197 . D
X9 O7 1.3537610866689143 . S
O10 Ni3 1.7887097966254897 . S
O10 X14 1.2345662252588963 . D
O11 Ni3 1.7839697311042024 . S
O12 Zn2 1.7418567070519895 . S
O13 Zn2 1.7602565593074777 . S
X14 O13 1.3473027652985052 . S
X15 O11 1.3594199530821962 . S
X15 O12 1.213931824030493 . D
O16 Zn1 1.77334253475802 . S
O16 Ni3 1.8171915607530207 . S
O17 Zn2 1.7729615149229832 . S
O17 Ni3 1.7940136439587078 . S
