data_4c_Zn_Cd_ox
_audit_creation_date              2020-10-22
_audit_creation_method            'adam'
_symmetry_space_group_name_H-M    'P1'
_symmetry_Int_Tables_number       1
_symmetry_cell_setting            triclinic
loop_
_symmetry_equiv_pos_as_xyz
  x,y,z
_cell_length_a                    20
_cell_length_b                    20
_cell_length_c                    20
_cell_angle_alpha                 90
_cell_angle_beta                  90
_cell_angle_gamma                 90
loop_
_atom_site_label
_atom_site_type_symbol
_atom_site_fract_x
_atom_site_fract_y
_atom_site_fract_z
Zn1 Zn -0.033932 0.126972 -0.04657
Zn2 Zn -0.020195 -0.154857 0.050595
Cd3 Cd -0.031217 -0.015663 0.002251
O4 O -0.110058 0.137121 -0.001904
O5 O -0.090824 0.044698 0.057603
O6 O 0.038241 0.138282 0.005774
O7 O 0.051433 0.030832 0.036989
X8 C -0.127278 0.099098 0.042311
X9 C 0.069593 0.095663 0.036258
O10 O -0.113258 -0.061713 -0.032121
O11 O 0.030463 -0.075201 -0.051501
O12 O 0.060671 -0.159831 0.015449
O13 O -0.081787 -0.168201 -0.013194
X14 C -0.125001 -0.121649 -0.035783
X15 C 0.074266 -0.121986 -0.03027
O16 O -0.033609 0.044386 -0.080144
O17 O -0.029001 -0.073437 0.084532
N18 N -0.028301 -0.208507 0.107149
N19 N -0.031954 0.180112 -0.104152
loop_
_geom_bond_atom_site_label_1
_geom_bond_atom_site_label_2
_geom_bond_distance
_geom_bond_site_symmetry_2
_ccdc_geom_bond_type
Zn1 N19 1.567623356311713 . T
Zn2 N18 1.5674765196738996 . T
O4 Zn1 1.7768777964862976 . S
O5 Cd3 2.025870213589459 . S
O6 Zn1 1.797411404486463 . S
O7 Cd3 2.019847457572477 . S
X8 O4 1.216086655850643 . D
X8 O5 1.3449331066302146 . S
X9 O6 1.2212394328341187 . D
X9 O7 1.3466184684809577 . S
O10 Cd3 2.003284817843184 . S
O10 X14 1.2237132026769995 . D
O11 Cd3 2.023706224008564 . S
O12 Zn2 1.766275103187213 . S
O13 Zn2 1.7933850358450636 . S
X14 O13 1.3483048844834764 . S
X15 O11 1.3502883659092972 . S
X15 O12 1.2177512631691252 . D
O16 Zn1 1.783003569122059 . S
O16 Cd3 2.03966139882555 . S
O17 Zn2 1.7729673872979164 . S
O17 Cd3 2.011261832317215 . S
