data_4c_Zn_O_pw
_audit_creation_date              2020-10-22
_audit_creation_method            'adam'
_symmetry_space_group_name_H-M    'P1'
_symmetry_Int_Tables_number       1
_symmetry_cell_setting            triclinic
loop_
_symmetry_equiv_pos_as_xyz
  x,y,z
_cell_length_a                    20
_cell_length_b                    20
_cell_length_c                    20
_cell_angle_alpha                 90
_cell_angle_beta                  90
_cell_angle_gamma                 90
loop_
_atom_site_label
_atom_site_type_symbol
_atom_site_fract_x
_atom_site_fract_y
_atom_site_fract_z
Zn1 Zn -0.095951 0.107319 0.007592
Zn2 Zn -0.112837 -0.008664 0.023627
O3 O -0.18174 0.122655 0.028528
O4 O -0.197646 0.014103 0.044311
O5 O -0.009351 0.087301 -0.013234
O6 O -0.02539 -0.019984 0.00105
X7 C -0.2197 0.077481 0.043314
X8 C 0.01433 0.031391 -0.014357
O9 O -0.101153 0.084716 -0.081081
O10 O -0.115792 -0.025936 -0.064361
O11 O -0.056343 0.1012 0.089807
O12 O -0.070547 -0.009892 0.10284
X13 C -0.050297 0.043504 0.125412
X14 C -0.111412 0.021242 -0.103472
O15 O -0.145999 -0.091684 0.040732
O16 O -0.09474 0.197418 -0.001462
loop_
_geom_bond_atom_site_label_1
_geom_bond_atom_site_label_2
_geom_bond_distance
_geom_bond_site_symmetry_2
_ccdc_geom_bond_type
Zn1 O3 1.7925686762559474 . S
Zn1 O5 1.825806928698651 . S
Zn1 O16 1.8112146370899829 . S
Zn2 O4 1.8043031774815455 . S
Zn2 O6 1.8204145254721515 . S
Zn2 O15 1.8204155083688998 . S
X7 O3 1.216593710241837 . D
X7 O4 1.3422591627629143 . S
X8 O5 1.214578530267187 . D
X8 O6 1.3348243043221082 . S
O9 Zn1 1.833132356086161 . S
O10 Zn2 1.7943083789234782 . S
O10 X14 1.2287517692231413 . D
O11 Zn1 1.8292748337745752 . S
O12 Zn2 1.7960777783609485 . S
X13 O11 1.3613389139101255 . S
X13 O12 1.2281124781615076 . D
X14 O9 1.361699818439806 . S
