data_4c_Zn_Mn_ox
_audit_creation_date              2020-10-22
_audit_creation_method            'adam'
_symmetry_space_group_name_H-M    'P1'
_symmetry_Int_Tables_number       1
_symmetry_cell_setting            triclinic
loop_
_symmetry_equiv_pos_as_xyz
  x,y,z
_cell_length_a                    20
_cell_length_b                    20
_cell_length_c                    20
_cell_angle_alpha                 90
_cell_angle_beta                  90
_cell_angle_gamma                 90
loop_
_atom_site_label
_atom_site_type_symbol
_atom_site_fract_x
_atom_site_fract_y
_atom_site_fract_z
Zn1 Zn -0.033262 0.126367 -0.043694
Zn2 Zn -0.021661 -0.155607 0.046191
Mn3 Mn -0.032237 -0.01491 0.004072
O4 O -0.109596 0.133786 0.000893
O5 O -0.093538 0.037838 0.056859
O6 O 0.04356 0.133469 0.00088
O7 O 0.044094 0.028649 0.042972
X8 C -0.128729 0.093485 0.041995
X9 C 0.069807 0.090243 0.035105
O10 O -0.108918 -0.058568 -0.035028
O11 O 0.029346 -0.068393 -0.04744
O12 O 0.059871 -0.157286 0.013901
O13 O -0.081357 -0.167218 -0.01842
X14 C -0.122019 -0.118701 -0.040885
X15 C 0.074004 -0.115202 -0.027943
O16 O -0.034372 0.044133 -0.073975
O17 O -0.032081 -0.074622 0.080374
N18 N -0.030344 -0.211057 0.101059
N19 N -0.033572 0.180017 -0.100914
loop_
_geom_bond_atom_site_label_1
_geom_bond_atom_site_label_2
_geom_bond_distance
_geom_bond_site_symmetry_2
_ccdc_geom_bond_type
Zn1 N19 1.568772370460737 . T
Zn2 N18 1.569783786730198 . T
O4 Zn1 1.7742458944230366 . S
O5 Mn3 1.931489641875928 . S
O6 Zn1 1.782011287312457 . S
O7 Mn3 1.922186225311949 . S
X8 O4 1.213192246922556 . D
X8 O5 1.3499399812525 . S
X9 O6 1.2212734624370578 . D
X9 O7 1.3441582796207447 . S
O10 Mn3 1.930265737683545 . S
O10 X14 1.2364261850692908 . D
O11 Mn3 1.9293825160931668 . S
O12 Zn2 1.7541922001189039 . S
O13 Zn2 1.7746045536053943 . S
X14 O13 1.3434077111621774 . S
X15 O11 1.3513642624707078 . S
X15 O12 1.2201216121583944 . D
O16 Zn1 1.7527796315926312 . S
O16 Mn3 1.9577568693721903 . S
O17 Zn2 1.7703872263437173 . S
O17 Mn3 1.9377953747452283 . S
