data_6c_Er_h2o
_audit_creation_date              2020-10-22
_audit_creation_method            'adam'
_symmetry_space_group_name_H-M    'P1'
_symmetry_Int_Tables_number       1
_symmetry_cell_setting            triclinic
loop_
_symmetry_equiv_pos_as_xyz
  x,y,z
_cell_length_a                    20
_cell_length_b                    20
_cell_length_c                    20
_cell_angle_alpha                 90
_cell_angle_beta                  90
_cell_angle_gamma                 90
loop_
_atom_site_label
_atom_site_type_symbol
_atom_site_fract_x
_atom_site_fract_y
_atom_site_fract_z
Er1 Er -0.084625 0.007441 -0.001395
Er2 Er 0.107396 0.06925 -0.006942
O3 O -0.065039 0.097963 -0.069213
O4 O 0.031126 0.150336 -0.035608
O5 O -0.006425 -0.072277 0.012632
O6 O 0.07334 -0.011787 0.058997
X7 C 0.048475 -0.069662 0.038348
X8 C -0.026028 0.152187 -0.059395
O9 O -0.166825 0.089399 -0.014279
O10 O -0.178716 0.01744 0.062456
O11 O 0.20405 0.092903 -0.063377
O12 O 0.171716 0.157777 0.014637
X13 C -0.204765 0.072998 0.032363
X14 C 0.218886 0.146539 -0.034537
O15 O -0.094944 -0.058412 0.095067
O16 O -0.124846 -0.098406 0.00145
O17 O 0.196488 0.042906 0.060723
O18 O 0.174443 -0.02013 -0.022066
X19 C -0.118472 -0.109809 0.069115
X20 C 0.215037 -0.009765 0.032469
O21 O -0.065844 0.062831 0.094776
H22 H -0.049815 0.109329 0.091462
O23 O -0.090049 -0.01218 -0.111628
H24 H -0.074514 -0.058129 -0.12183
O25 O 0.089569 0.101306 0.100955
H26 H 0.056356 0.134442 0.114637
O27 O 0.085683 0.003409 -0.096412
H28 H 0.127947 -0.002019 -0.121976
H29 H -0.052381 0.039447 0.136559
H30 H -0.077259 0.020524 -0.146488
H31 H 0.131385 0.109869 0.126473
H32 H 0.060261 0.031697 -0.127776
loop_
_geom_bond_atom_site_label_1
_geom_bond_atom_site_label_2
_geom_bond_distance
_geom_bond_site_symmetry_2
_ccdc_geom_bond_type
Er1 O3 2.295844236939867 . S
Er1 O5 2.2509408109663838 . S
Er1 O15 2.3450258175536147 . S
Er1 O16 2.2653316908183667 . S
Er1 O21 2.2511857993282116 . S
Er1 O23 2.241939635767654 . S
Er2 O4 2.2990250481669396 . S
Er2 O6 2.1977031150385167 . S
Er2 O17 2.2986945896812827 . S
Er2 O18 2.255033744707826 . S
Er2 O25 2.279217806825403 . S
Er2 O27 2.263741671334872 . S
O3 X8 1.3503176139786521 . S
O5 X7 1.2136095209934703 . D
X7 O6 1.3257658530166627 . S
X8 O4 1.2386837582034407 . D
O9 Er1 2.3358099418141878 . S
O9 X13 1.2464197601783278 . D
O10 Er1 2.282976336350861 . S
O11 Er2 2.287920572828961 . S
O11 X14 1.253580383284215 . D
O12 Er2 2.2306701002138345 . S
X13 O10 1.3668763530813606 . S
X14 O12 1.3812174855615604 . S
O15 X19 1.2439781570815462 . D
O17 X20 1.251668206844769 . D
X19 O16 1.3782753653784139 . S
X20 O18 1.375403534569764 . S
O21 H22 0.985891719483433 . S
O21 H29 0.9947545396654393 . S
O23 H24 0.9913229778608987 . S
O23 H30 0.9896191787172476 . S
O25 H26 0.9773882104332956 . S
O25 H31 0.994599250878966 . S
O27 H28 0.9938163987125587 . S
O27 H32 0.9859292370271814 . S
